*HEADING
: TEST MASS PROPERTIES FOR C3D20, C3D15, C3D15V, B32, S8R
S3R, AND T3D3H ELEMENTS INCLUDED IN A RIGID BODY (CONCENTRATED LOAD)
COMPOSITE SHELL AND SOLIDS
DEFORMABLE TO RIGID ELEMENTS
*PREPRINT, ECHO=YES, MODEL=YES, HISTORY=YES
*RESTART,WRITE
*NODE,NSET=NODES
101, 4.0, -3.0, 1.0
102, 4.0, -2.0, 1.0
103, 4.0, -1.0, 1.0
104, 3.0, -1.0, 1.0
105, 2.0, -1.0, 1.0
106, 2.0,  0.0, 1.0
107, 2.0,  1.0, 1.0
108, 3.0,  1.0, 1.0
109, 4.0,  1.0, 1.0
110, 4.0,  0.0, 1.0
111, 4.0,  2.0, 1.0
112, 4.0,  3.0, 1.0
1101, 4.0, -3.0, 0.0
1102, 4.0, -2.0, 0.0
1103, 4.0, -1.0, 0.0
1104, 3.0, -1.0, 0.0
1105, 2.0, -1.0, 0.0
1106, 2.0,  0.0, 0.0
1107, 2.0,  1.0, 0.0
1108, 3.0,  1.0, 0.0
** ... 89 like lines cut
*ELEMENT, TYPE=C3D20, ELSET=BRICKS
101,105,103,2103,2105, 107,109,2109,2107, 104,1103,2104,1105, 108,1109,2108,
1107, 106,110,2110,2106
*ELEMENT, TYPE=C3D15, ELSET=BRIC1
201,203,205,2203, 209,207,2209, 204,1204,1203, 208,1208,1209, 210,206,2210 
*ELEMENT, TYPE=C3D15V, ELSET=BRIC1
204,205,2205,2203, 207,2207,2209, 1205,2204,1204, 1207,2208,1208, 206,2206,2210,
1206,2213,1213
*ELEMENT, TYPE=B32, ELSET=BEAM
102,101,102,103
103,109,111,112
202,201,202,203
203,209,211,212
301,301,302,303
1102,2101,2102,2103
1103,2109,2111,2112
1202,2201,2202,2203
1203,2209,2211,2212
1301,1301,1302,1303
*ELEMENT, TYPE=T3D3H, ELSET=TRUSS1
501,501,502,503
1501,1501,1502,1503
*ELEMENT,TYPE=S8R,ELSET=RIG1
401,401,403,405,407, 402,404,406,408
*ELEMENT,TYPE=S3R,ELSET=RIG2
1401, 1401,1403,1407
1402, 1403,1405,1407
*SOLID SECTION, ELSET=BRICKS, COMPOSITE
0.2, 3, MAT1
0.2, 3, MAT1
0.2, 3, MAT2
0.2, 3, MAT2
0.2, 3, MAT2
*SOLID SECTION, ELSET=BRIC1, MATERIAL=MAT1
1.0, 
*SOLID SECTION, ELSET=TRUSS1, MATERIAL=MAT1
0.1, 
*BEAM SECTION,SECTION=CIRC,MATERIAL=MAT1,ELSET=BEAM
0.56419611, 
*SHELL SECTION, COMPOSITE, ELSET=RIG1
0.02, 3, MAT1
0.02, 3, MAT1
0.02, 3, MAT2
0.02, 3, MAT2
0.02, 3, MAT2
*SHELL SECTION, MATERIAL=MAT1, ELSET=RIG2
0.1, 
*MATERIAL, NAME=MAT1
*ELASTIC
2.E+9, .3
*DENSITY
1.0, 
*MATERIAL, NAME=MAT2
*ELASTIC
1.E+9, .3
*DENSITY
1.0, 
*ELSET, ELSET=RIGID
BRICKS,BRIC1, BEAM,TRUSS1,RIG1,RIG2
