*HEADING
 GLOBAL MODEL FOR SUBMODELING EXAMPLE
 STACKEDASSEMBLY_S4R_GLOBAL
 MULTIPLE *SUBMODEL OPTIONS
*NODE,NSET=ALLNO
11426,2729.31116,-551.83477,678.18316
11427,2729.31116,-551.83477,663.82935
11428,2729.31116,-551.83477,649.20325
11429,2729.31116,-551.83477,634.57705
11432,2732.81016,-551.83477,619.95095
11433,2766.08816,-551.83477,581.22565
11434,2771.08816,-551.83477,556.09678
11435,2764.58881,-551.83477,549.59665
11436,2747.81916,-553.18827,549.59665
11437,2733.85316,-553.18827,547.09665
11438,2747.81916,-553.18827,547.09665
11439,2717.72416,-551.69727,547.09665
11440,2762.08816,-552.58477,547.09665
11441,2702.20116,-552.30427,547.09665
11442,2687.08816,-552.58477,547.09665
11443,2733.85316,-553.18827,549.59665
11444,2722.97066,-552.44277,549.59665
11449,2712.08816,-551.69727,549.59665
11450,2665.78739,-578.77336,680.95545
11451,2686.00681,-584.56883,680.95545
** ... 1097 like lines cut
*ELEMENT,TYPE=S4R
6104,12874,12078,12843,12864
6126,13348,12829,11443,12835
6155,13348,12829,11436,12834
6169,12846,12796,12809,12822
6171,12044,12045,12064,12057
6177,11426,11427,12033,12029
6178,11427,11426,12012,12013
6179,11427,11428,12032,12033
6180,11428,11427,12013,12014
6181,11428,11429,12031,12032
6182,11429,11428,12014,12015
6205,12045,12046,12047,12064
6206,12849,12800,12815,12797
6214,11467,11426,12029,12040
6215,11426,11467,12039,12012
6279,12046,12235,12238,12047
6280,12882,12831,12832,12883
6283,12883,12048,12065,12882
6347,11452,11454,12261,11453
6348,11458,11457,12264,12262
** ... 898 like lines cut
*ELEMENT,TYPE=S3R
6101,12797,12810,12811
6103,12797,12811,12815
6105,11460,12256,12263
6106,11457,11456,11450
6107,12041,12042,11471
6108,12263,11456,11460
6110,11471,12042,11647
6111,12041,11471,12259
6113,13345,12263,12256
6118,12259,11471,13345
6140,12830,12864,12843
6141,12828,12861,12839
6143,12830,12828,12861
6144,12078,12843,12067
6145,12796,12809,12810
6146,12825,12019,12018
6147,12822,12851,12846
6148,12807,12019,12825
207841,132092,127819,132093
207843,127823,131831,127813
** ... 46 like lines cut
*ELSET,ELSET=LAYER1
6101,6103,6104,6105,6106,6107,6108,6110,6111,6113,6118,6126
6140,6141,6143,6144,6145,6146,6147,6148,6155,6169,6171,6177
6178,6179,6180,6181,6182,6205,6206,6214,6215,6279,6280,6283
6347,6348,6349,6350,6351,6352,6353,6354,6355,6356,6357,6358
6359,6361,6363,6368,6369,6370,6372,6373,6374,6376,6377,6378
6379,6380,6381,6392,6395,6396,6397,6398,6399,6400,6401,6404
6405,6406,6407,6408,6409,6410,6411,6412,6413,6414,6415,6416
6417,6418,6419,6420,6421,6422,6423,6424,6425,6426,6427,6428
6429,6430,6431,6432,6433,6434,6435,6436,6437,6438,6439,6440
6441,6442,6443,6444,6452,6454,6455,6465,6466,6467,6468,6469
6470,6471,6472,6473,6474,6475,6476,6477,6478,6479,6480,6481
6482,6483,6484,6495,6496,6497,6498,6499,6500,6501,6502,6523
6524,6525,6526,6537,6538,6539,6540,6541,6542,6543,6544,6545
6546,6547,6548,6549,6550,6551,6552,6553,6554,6555,6556,6558
6559,6560,6561,6562,6563,6564,6565,6566,6567,6569,6571,6572
6573,6574,6575,6576,6577,6578,6580,6588,6589,6594,6622,6623
6624,6625,6626,6627,6628,6629,6635,6692,7097,7098,7123,7124
7125,7126,7127,7128,7129,7130,7131,7132,7133,7134,7135,7136
7137,
*ELSET,ELSET=LAYER2
207656,207706,207710,207712,207714,207719,207720,207721,207722,207723,207724,207820
207821,207822,207823,207824,207836,207837,207838,207839,207840,207841,207842,207843
207857,207858,207859,207860,207861,207862,207863,207864,207865,207866,207867,207868
207869,207870,207871,207872,207873,207874,207875,207876,207877,207879,207880,207881
207882,207884,207885,207887,207897,207898,207900,207901,207902,207903,207905,207906
207907,207910,207911,207912,207913,207914,207915,207916,207917,207918,207919,207920
207921,207922,207923,207924,207925,207926,207927,207928,207929,207930,207931,207932
207933,207934,207935,207936,207937,207938,207939,207940,207941,207944,207945,207946
207947,207948,207951,207952,207955,207956,207964,207965,207966,207967,207968,207978
207979,207980,207981,207982,208008,208009,208010,208011,208020,208028,208029,208253
208254,208255,208276,208277,208278,208329,208336,208337,208338,208339,208347,208619
208620,208621,208622,208623,208625,208626,208627,208628,208629,208631,208632,208633
208634,208635,208637,208638,208639,208640,208641,209001,209002,209003,209005,209006
209007,209009,209010,209011,209013,209014,209015,209017,209018,209019,209021,209022
209023,209060,209061,209063,209064,209066,209067,209068,209070,209071,209072,209074
209075,209092,209093,209094,209095,209096,209097,209098,209099,209100,209101,209102
209103,209104,209105,209106,209107,209695,210399,210401,210403,210405,210407,210409
210411,210413,210430,210432,210434,210436,210438,210440,210442,210444,210491,210493
210495,210497,210499,210501,210503,210600,210602,210603,210605,210624,210626,210630
210632,210640,210643,210671,210679,210701,210703,210705,210707,210717,210719,210721
** ... 6 like lines cut
*ELSET,ELSET=LAYER3
213547,213548,213551,213552,213553,213554,213555,213556,213557,213558,213559,213560
213561,213562,213576,213577,213578,213579,213580,213581,213582,213585,213586,213587
213588,213589,213590,213591,213592,213595,213596,213597,213598,213600,213605,213606
213607,213608,213609,213610,213611,213612,213613,213616,213617,213623,213624,213625
213626,213627,213628,213629,213630,213631,213632,213633,213634,213635,213636,213637
213638,213639,213640,213643,213644,213645,213646,213647,213648,213651,213652,213653
213654,213655,213656,213657,213658,213659,213660,213661,213662,213663,213665,213666
213667,213668,213669,213670,213671,213672,213673,213674,213675,213676,213677,213678
213683,213684,213685,213686,213687,213688,213689,213690,213691,213692,213693,213698
213699,213700,213701,213702,213703,213704,213705,213706,213707,213708,213711,213712
213713,213714,213715,213716,213717,213718,213719,213720,213725,213726,213727,213728
213729,213730,213731,213732,213733,213737,213741,213745,213746,213747,213748,213749
213750,213751,213752,213753,213754,213755,213759,213760,213761,213762,213763,213764
213768,213774,213775,213779,213780,213781,213782,213783,213784,213785,213786,213787
213788,213789,213794,213795,213796,213797,213798,213799,213800,213801,213802,213803
213804,213809,213810,213811,213812,213813,213814,213815,213816,213817,213818,213819
213822,213823,213824,213836,213837,213838,213860,213861,213862,214099,553308,553309
553310,553311,553312,553313,553314,553315,553316,553317,553318,553319,553320,553321
553322,553323,4422070,4422071,4422072,4422073,4422074,4422075,4422076,4422077,4422078,4422079
4422080,4422081,4422090,4422091,4422092,4422093,4422094,4422095,4422096,4422097,4422098,4422099
4422100,4422101,4422102,4422103,4422104,4422105,4422106,4422107,4422108,4422109
*ELSET,ELSET=LAYER4
213015,213016,213017,213018,213044,213045,213046,213056,213058,213059,213060,213061
213062,213074,213075,213076,213078,213080,213083,213084,213086,213087,213088,213089
213090,213091,213094,213095,213096,213097,213106,213107,213108,213110,213113,213114
213115,213116,213119,213120,213123,213124,213125,213150,213151,213154,213155,213164
213165,213166,213167,213169,213170,213171,213176,213177,213178,213179,213180,213182
213186,213188,213189,213190,213191,213204,213220,213222,213223,213231,213232,213235
213236,213269,213270,213271,213272,213277,213278,213279,213280,213296,213297,213305
213307,213308,213309,213310,213311,213312,213317,213318,213319,213320,213322,213342
213343,213344,213345,213348,213349,213350,213351,213352,213353,213362,213363,213390
213391,213418,213420,213422,213452,213454,213512,213525,553292,553293,553294,553295
553296,553297,553298,553299,553300,553301,553302,553303,553304,553305,553306,553307
553603,553604,553605,553606,553607,553608,553609,553610,553611,553612,553613,553614
553615,553616,553617,553618,4422032,4422033,4422034,4422035,4422038,4422039,4422040,4422041
4422045,4422048,4422049,4422050,4422051,4422052,4422054,4422055,4422056,4422057,4422058,4422059
4422060,4422061,4422062,4422063,4422064,4422065,4422066,4422067,4422068,4422069,4422082,4422083
4422086,4422087
*ELSET,ELSET=LAYER5
214533,214534,214535,214536,214537,214538,214539,214540,214541,214542,214543,214544
214545,214546,214547,214548,214549,214550,214551,214552,214553,214554,214555,214556
214557,214558,214559,214560,214569,214570,214571,214572
*NSET,NSET=BC1,GENERATE
11461,11465
12265,12268
12255,12255
*NSET,NSET=BC2
135970,135982,131457,131494,131480,131425,136009,136023,135992,127991,128010,128001
*NSET,NSET=BC3
127825,131657,131661,131671,131674,131708,131710,131714,131749,131751,131752,131753
131755,131760,131762,131766,131767,131770,131772,132076,132077,132078,132079,132080
132081,132088,132089,132090,132096,132102,132108,132114,133114,133115,133116,133118
133122,133126,133130,133135,133136,133176,133177,133178,133180,133184,133188,133193
133194,133290,133291,133292,133293,133294,133506,133507,133508,133509,133510,133827
133828,134297,135553,135602,135614,136323,136394,136406,136440,136452
*NSET,NSET=CNODE1
11437,11438,11439,11440,11441,11442,12017,12018,12019,12020,12021,12797
12798,12806,12807,12808,12809,12810,12811,12812,12813,12814,12815,12816
12817,12818,12819,12820,12821,12822,12823,12824,12825,12826,12827,13349
*NSET,NSET=CNODE3
127953,127954,127955,127957,127967,127968,127969,127970,130937,130938,131085,131086
131392,131393,131394,131395,131396,131397,131418,131419,131420,131426,131427,131428
131429,131454,131469,131470,131474,131511,131512,131514,131524,131525,131526,292225
292226,292227,292228,292229,292230,292231,292232,131423,131548,131547,136042,131522
136043,131549
*NSET,NSET=CNODE4A
127853,131390,132748,132749,132750,132804,132810,132811,132812,132813,132814,132815
132818,132833,132834,132835,132836,132837,132838,132839,132855,132911,132921,132922
132923,133973,133974,133975,135485,135825,135826,136066,136156,292217,292218,292219
292220,292221,292222,292223,292224,292275,292276,292277,292278,292279,292280,292281
292282,2292249,2292256
*NSET,NSET=CNODE4B
131521,132894,132896,132908,132909,132910,133959,133960,134072,134073
*NSET,NSET=CNODE5
136825,136826,136841,136845,136850,136853,136856,136859,136862,136863,136866,136867
136870,136871,136874,136877,136880,136883,136886,136889,136890,136989,136990,136991
136992,136994,136999,137000,137003,137004,137005,137006,137007,137008,137009,137010
137011,137016,137019,137020
*NSET,NSET=L1N
11426,11427,11428,11429,11432,11433,11434,11435,11436,11437,11438,11439
11440,11441,11442,11443,11444,11449,11450,11451,11452,11453,11454,11455
11456,11457,11458,11459,11460,11461,11462,11463,11464,11465,11466,11467
11468,11469,11470,11471,11643,11646,11647,12012,12013,12014,12015,12017
12018,12019,12020,12021,12024,12025,12026,12027,12028,12029,12030,12031
12032,12033,12034,12036,12037,12038,12039,12040,12041,12042,12043,12044
12045,12046,12047,12048,12050,12051,12052,12053,12054,12057,12058,12059
12060,12061,12064,12065,12067,12078,12080,12081,12090,12092,12093,12094
12095,12110,12111,12112,12113,12114,12115,12116,12117,12118,12119,12201
12202,12203,12204,12205,12206,12207,12208,12209,12210,12214,12215,12227
12228,12229,12230,12231,12232,12233,12234,12235,12237,12238,12239,12240
12241,12242,12243,12246,12247,12248,12253,12254,12255,12256,12257,12258
12259,12260,12261,12262,12263,12264,12265,12266,12267,12268,12269,12787
12788,12789,12790,12791,12792,12793,12794,12795,12796,12797,12798,12799
12800,12801,12802,12803,12804,12806,12807,12808,12809,12810,12811,12812
12813,12814,12815,12816,12817,12818,12819,12820,12821,12822,12823,12824
12825,12826,12827,12828,12829,12830,12831,12832,12833,12834,12835,12836
12837,12838,12839,12840,12841,12842,12843,12846,12847,12849,12851,12854
12855,12858,12861,12862,12864,12866,12869,12870,12873,12874,12875,12876
12877,12878,12879,12880,12881,12882,12883,12884,12885,12886,12887,12888
12889,12890,12891,12892,12893,12894,12895,12896,12897,12898,12899,12900
12901,12903,12904,12905,12906,13345,13348,13349
*NSET,NSET=L2N
127119,127120,127121,127151,127153,127154,127685,127686,127687,127722,127741,127742
127748,127749,127750,127751,127752,127753,127754,127755,127756,127757,127758,127759
127760,127761,127762,127763,127764,127765,127766,127767,127768,127769,127770,127771
127772,127773,127774,127775,127776,127777,127778,127779,127781,127782,127783,127784
127785,127787,127788,127789,127791,127792,127793,127794,127795,127796,127797,127798
127799,127800,127801,127802,127805,127806,127808,127809,127810,127812,127813,127814
127816,127817,127819,127820,127821,127822,127823,127825,131657,131658,131659,131660
131661,131664,131667,131669,131671,131672,131673,131674,131705,131706,131708,131710
131712,131713,131714,131716,131717,131749,131751,131752,131753,131754,131755,131756
131757,131758,131760,131762,131763,131764,131766,131767,131769,131770,131771,131772
131829,131830,131831,131832,131833,131834,131835,131836,131837,131838,131869,131870
131926,131943,131956,131977,131979,131980,132076,132077,132078,132079,132080,132081
132088,132089,132090,132091,132092,132093,132094,132095,132096,132097,132098,132099
132100,132101,132102,132103,132104,132105,132106,132107,132108,132109,132110,132111
132112,132113,132114,133114,133115,133116,133118,133119,133120,133122,133123,133124
133126,133127,133128,133130,133131,133132,133135,133136,133137,133138,133139,133140
133176,133177,133178,133180,133181,133182,133184,133185,133186,133188,133189,133190
133193,133194,133195,133196,133197,133198,133241,133243,133276,133277,133278,133279
133280,133281,133282,133283,133284,133285,133286,133287,133288,133289,133290,133291
133292,133293,133294,133295,133296,133297,133298,133299,133300,133301,133302,133303
** ... 8 like lines cut
*NSET,NSET=L3N
127949,127950,127952,127953,127954,127955,127956,127957,127961,127962,127965,127966
127967,127968,127969,127970,127985,127986,127987,127988,127989,127990,127991,127995
127996,127997,127998,127999,128000,128001,128004,128005,128006,128007,128008,128009
128010,130937,130938,131085,131086,131392,131393,131394,131395,131396,131397,131398
131399,131405,131406,131407,131408,131418,131419,131420,131423,131425,131426,131427
131428,131429,131430,131431,131432,131433,131434,131435,131436,131437,131438,131439
131440,131441,131442,131443,131444,131445,131446,131447,131448,131449,131450,131451
131452,131454,131457,131458,131459,131460,131461,131462,131463,131464,131465,131466
131467,131468,131469,131470,131474,131475,131476,131477,131480,131481,131482,131483
131484,131485,131486,131487,131488,131489,131490,131491,131494,131495,131496,131497
131498,131499,131500,131501,131502,131503,131504,131505,131506,131507,131508,131511
131512,131514,131522,131524,131525,131526,131527,131528,131529,131530,131532,131533
131534,131535,131536,131537,131538,131539,131540,131541,131542,131543,131544,131545
131546,131547,131548,131549,131550,135955,135956,135957,135958,135959,135960,135961
135962,135963,135964,135965,135966,135967,135968,135969,135970,135972,135973,135974
135975,135976,135977,135978,135979,135980,135981,135982,135984,135987,135988,135989
135992,135993,135994,135995,135996,135997,135998,135999,136000,136001,136002,136003
136009,136010,136011,136012,136013,136014,136015,136016,136017,136018,136019,136020
136023,136024,136025,136026,136027,136028,136029,136030,136031,136032,136033,136034
136035,136036,136037,136038,136039,136040,136041,136042,136043,136044,136045,136046
136047,136048,136049,136050,136051,136052,136053,136054,292225,292226,292227,292228
292229,292230,292231,292232,2292261,2292262,2292263,2292264,2292265,2292266,2292267,2292276
2292277,2292279,2292280,2292281,2292282,2292284,2292285
*NSET,NSET=L4N
127851,127853,127854,131299,131308,131315,131390,131519,131521,131523,132630,132635
132636,132742,132745,132748,132749,132750,132751,132752,132753,132755,132786,132787
132800,132801,132804,132806,132807,132809,132810,132811,132812,132813,132814,132815
132816,132817,132818,132819,132820,132826,132827,132830,132831,132833,132834,132835
132836,132837,132838,132839,132855,132892,132894,132896,132897,132906,132907,132908
132909,132910,132911,132915,132916,132917,132918,132919,132921,132922,132923,132924
132925,132926,132927,132928,132929,132930,132938,132939,132942,132943,132944,132945
132946,132947,133958,133959,133960,133963,133964,133967,133968,133969,133970,133973
133974,133975,133976,133977,133978,133979,133980,133981,133982,133989,133990,133996
133997,134000,134001,134002,134003,134047,134048,134049,134050,134071,134072,134073
134074,134081,134082,134083,134084,134101,134102,134103,134104,135322,135343,135353
135472,135473,135474,135475,135478,135479,135480,135485,135486,135786,135787,135788
135789,135799,135808,135809,135812,135813,135819,135820,135821,135825,135826,135929
135930,135931,135932,136056,136057,136058,136060,136063,136064,136066,136067,136154
136156,292217,292218,292219,292220,292221,292222,292223,292224,292275,292276,292277
292278,292279,292280,292281,292282,2292207,2292213,2292216,2292220,2292224,2292229,2292230
2292231,2292237,2292239,2292240,2292245,2292246,2292247,2292249,2292250,2292251,2292252,2292253
2292254,2292255,2292256,2292257,2292258,2292259,2292260
*NSET,NSET=L5N
128290,136811,136825,136826,136841,136845,136850,136853,136856,136859,136862,136863
136866,136867,136870,136871,136874,136877,136880,136883,136886,136889,136890,136989
136990,136991,136992,136994,136999,137000,137003,137004,137005,137006,137007,137008
137009,137010,137011,137016,137019,137020
*ELSET,ELSET=LA2SNEG
207656,207706,207710,207714,207719,207723,207724,207820,207821,207823,207824,207836
207838,207839,207840,207841,207842,207857,207859,207861,207863,207864,207866,207867
207869,207870,207871,207872,207873,207874,207875,207876,207877,207880,207881,207885
207887,207897,207900,207901,207902,207903,207905,207906,207907,207910,207912,207913
207931,207932,207933,207934,207935,207936,207939,207940,207945,207946,207951,207952
207955,207956,207978,207980,208008,208009,208010,208011,208029,208329,208336,208337
208338,208339,208347,208619,208620,208621,208622,208623,208625,208626,208627,208628
208629,208631,208632,208633,208634,208635,208637,208638,208639,208640,208641,210399
210401,210403,210405,210407,210409,210411,210413,210497,210501,210503,210600,210603
210605,210624,210626,210630,210632,210671,210701,210703,210705,210707,210749,210764
210858,210861,210862,210863,210864,210865,210902,210903,210904,210905,210906,210907
210908,210909
*ELSET,ELSET=LA2SPOS
207712,207720,207721,207722,207822,207837,207843,207858,207860,207862,207865
207868,207879,207882,207884,207898,207911,207914,207915,207916,207917,207918,207919
207920,207921,207922,207923,207924,207925,207926,207927,207928,207929,207930,207937
207938,207941,207944,207947,207948,207964,207965,207966,207967,207968,207979,207981
207982,208020,208028,208253,208254,208255,208276,208277,208278,209001,209002,209003
209005,209006,209007,209009,209010,209011,209013,209014,209015,209017,209018,209019
209021,209022,209023,209060,209061,209063,209064,209066,209067,209068,209070,209071
209072,209074,209075,209092,209093,209094,209095,209096,209097,209098,209099,209100
209101,209102,209103,209104,209105,209106,209107,209695,210430,210432,210434,210436
210438,210440,210442,210444,210491,210493,210495,210499,210602,210640,210643,210679
210717,210719,210721,210723,210870,210871,210872,210873,210880,210881,210918,210919
210920,210921,210922,210923,210924,210925,553276,553277,553278,553279,553280,553281
553282,553283,553284,553285,553286,553287,553288,553289,553290,553291,553587,553588
553589,553590,553591,553592,553593,553594,553595,553596,553597,553598,553599,553600
553601,553602
*ELSET,ELSET=TLAYER4
213015,213016,213017,213018,213044,213045,213046,213056,213058,213076,213220,213222
213223,213305,213307,213308,213512,213525,553292,553293,553294,553295,553296,553297
553298,553299,553300,553301,553302,553303,553304,553305,553306,553307,553603,553604
553605,553606,553607,553608,553609,553610,553611,553612,553613,553614,553615,553616
553617,553618
*MPC
BEAM,137004,132830
BEAM,137008,132827
BEAM,137016,132826
BEAM,136999,132817
BEAM,137000,132806
BEAM,136991,132807
BEAM,136990,132809
BEAM,136886,132831
BEAM,132809,127952
BEAM,132807,127950
BEAM,132806,127949
BEAM,132817,127956
BEAM,132826,127961
BEAM,132827,127962
BEAM,132830,127965
BEAM,132831,127966
BEAM,127961,127151
BEAM,127956,127119
BEAM,127949,127781
BEAM,127950,127791
** ... 20 like lines cut
*SHELLSECTION,ELSET=LAYER1,MATERIAL=STEEL
0.5,
*SHELLSECTION,ELSET=LAYER2,MATERIAL=STEEL
0.5,
*SHELLSECTION,ELSET=LAYER3,MATERIAL=STEEL
0.5,
*SHELLSECTION,ELSET=LAYER4,MATERIAL=STEEL
0.5,
*SHELLSECTION,ELSET=LAYER5,MATERIAL=STEEL
0.5,
*MATERIAL,NAME=STEEL
*DENSITY
7.8E-09,
*ELASTIC
207000.,0.28
*PLASTIC
250.0,0.0
420.0,0.2
*SURFACE, NAME=BLAYER2
LA2SPOS,SPOS
LA2SNEG,SNEG
*SURFACE, NAME=TLAYER2
LA2SPOS,SNEG
LA2SNEG,SPOS
*SURFACE, NAME=TLAYER3
LAYER3,SNEG
*SURFACE, NAME=TLAYER4
TLAYER4,SPOS
*SURFACE, TYPE=NODE, NAME=CNODE1
CNODE1,
*SURFACE, TYPE=NODE, NAME=CNODE3
CNODE3,
*SURFACE, TYPE=NODE, NAME=CNODE4A
CNODE4A,
*SURFACE, TYPE=NODE, NAME=CNODE4B
CNODE4B,
*SURFACE, TYPE=NODE, NAME=CNODE5
CNODE5,
*SURFACE INTERACTION,NAME=INTER1
*CONTACT PAIR,INTERACTION=INTER1,SMALL SLIDING,NOTHICK
CNODE1,BLAYER2
CNODE3,TLAYER2
CNODE4A,TLAYER3
CNODE4B,TLAYER2
CNODE5,TLAYER4
*BOUNDARY
BC1,1,6
BC3,1,6
*RESTART,WRITE,OVERLAY
*STEP,INC=999,NLGEOM
*STATIC
0.025,1.0
*BOUNDARY
BC2,3,3,-12.5
BC2,1,1,-5.0
*ELPRINT,FREQ=0
*NODEPRINT,FREQ=0
*NODEFILE,NSET=ALLNO,FREQ=100
U,
*OUTPUT,FIELD,FREQ=100
*ELEMENT OUTPUT
E,
*NODE OUTPUT, NSET=ALLNO
U,
*CONTACT OUTPUT
CSTRESS,CDISP
*END STEP
