*NODE
1, 90.2137884322336, 6.01050658157755, 2.63461362759896
2, 90.2096318063968, 7.04272757815988, 2.50251228427545
3, 90.2059378271409, 6.65803080335138, 3.42539783567867
4, 88.9591631007688, 7.0802888234567, 2.4263218764099
5, 88.9174490165094, 6.71967609066667, 3.30312493181389
6, 90.2099736521343, 7.30321044046592, 1.54095343525219
7, 90.2151231877577, 6.11587494420607, 1.56744602548517
8, 88.9909382702265, 7.32494756823456, 1.4831181354263
9, 90.209841431026, 7.44303089931767, 0.519159078018225
10, 90.2151894480101, 6.22047748238872, 0.520863353161344
11, 89.0067424434242, 7.4523305292602, 0.494281775909125
12, 90.2115537084231, 7.4425089734513, -0.521956964550274
13, 90.2165191062707, 6.20737288779789, -0.509251790213407
14, 88.9929626370177, 7.45078936237981, -0.509790459758548
15, 87.8271963459601, 7.10178405814891, 2.37987234913552
16, 87.7952917893165, 6.75035683857453, 3.23548318072256
17, 86.7577580613474, 7.11201616721896, 2.3536177683942
18, 86.7390731461316, 6.76504215153464, 3.1998463345033
19, 87.856834399024, 7.33766100015547, 1.44920490657948
20, 86.7781201211241, 7.34305163150389, 1.42946754620304
** ... 87710 like lines cut
*ELEMENT, TYPE=C3D4
1, 17787, 17790, 11490, 34069
2, 22926, 17777, 17786, 34068
3, 22773, 22926, 12019, 34068
4, 17750, 12019, 17786, 34068
5, 22926, 17786, 12019, 34068
6, 17754, 11492, 17788, 45478
7, 12023, 17754, 17788, 45478
8, 45473, 17788, 45474, 45478
9, 17788, 42795, 45473, 45474
10, 22889, 12037, 22939, 45471
11, 12073, 22889, 22939, 45471
12, 45468, 22939, 40394, 45471
13, 22939, 45468, 40394, 40392
14, 28276, 36708, 36707, 36783
15, 28393, 28397, 28395, 36780
16, 28390, 28393, 28395, 36780
17, 28395, 28393, 28390, 33420
18, 28371, 28395, 28364, 33420
19, 28362, 28364, 28390, 33420
20, 27762, 12850, 27835, 45461
** ... 6973 like lines cut
*ELEMENT, TYPE=C3D5
6994, 11262, 11266, 11264, 11260, 11259
6995, 11264, 11265, 11261, 11260, 11259
6996, 11263, 11262, 11260, 11261, 11259
6997, 11272, 11273, 11269, 11268, 11267
6998, 11271, 11270, 11268, 11269, 11267
6999, 11278, 11282, 11280, 11276, 11275
7000, 11280, 11281, 11277, 11276, 11275
7001, 11279, 11278, 11276, 11277, 11275
7002, 11288, 11289, 11285, 11284, 11283
7003, 11287, 11286, 11284, 11285, 11283
7004, 11295, 11296, 11292, 11291, 11290
7005, 11294, 11293, 11291, 11292, 11290
7006, 11302, 11303, 11299, 11298, 11297
7007, 11301, 11300, 11298, 11299, 11297
7008, 11309, 11310, 11306, 11305, 11304
7009, 11308, 11307, 11305, 11306, 11304
7010, 11316, 11317, 11313, 11312, 11311
7011, 11315, 11314, 11312, 11313, 11311
7012, 11323, 11324, 11320, 11319, 11318
7013, 11322, 11321, 11319, 11320, 11318
** ... 5924 like lines cut
*ELEMENT, TYPE=C3D6
12938, 11270, 11268, 11267, 11263, 11261, 11259
12939, 11265, 11261, 11259, 11272, 11268, 11267
12940, 11286, 11284, 11283, 11279, 11277, 11275
12941, 11281, 11277, 11275, 11288, 11284, 11283
12942, 11293, 11291, 11290, 11287, 11285, 11283
12943, 11289, 11285, 11283, 11295, 11291, 11290
12944, 11300, 11298, 11297, 11294, 11292, 11290
12945, 11296, 11292, 11290, 11302, 11298, 11297
12946, 11307, 11305, 11304, 11301, 11299, 11297
12947, 11303, 11299, 11297, 11309, 11305, 11304
12948, 11314, 11312, 11311, 11308, 11306, 11304
12949, 11310, 11306, 11304, 11316, 11312, 11311
12950, 11321, 11319, 11318, 11315, 11313, 11311
12951, 11317, 11313, 11311, 11323, 11319, 11318
12952, 11328, 11326, 11325, 11322, 11320, 11318
12953, 11324, 11320, 11318, 11330, 11326, 11325
12954, 11335, 11333, 11332, 11329, 11327, 11325
12955, 11331, 11327, 11325, 11337, 11333, 11332
12956, 11342, 11340, 11339, 11336, 11334, 11332
12957, 11338, 11334, 11332, 11344, 11340, 11339
** ... 36117 like lines cut
*ELEMENT, TYPE=C3D8
49075, 15866, 15873, 15887, 15880, 15894, 15901, 11260, 32977
49076, 15874, 15902, 11261, 15888, 15873, 15901, 11260, 15887
49077, 15880, 32977, 11260, 15887, 15882, 32979, 11262, 15889
49078, 15894, 15901, 11260, 32977, 15898, 15905, 11264, 32981
49079, 11260, 11264, 11266, 11262, 32977, 32981, 32983, 32979
49080, 11260, 11261, 11265, 11264, 15901, 15902, 15906, 15905
49081, 11261, 11260, 11262, 11263, 15888, 15887, 15889, 15890
49082, 15874, 15913, 15927, 15888, 15902, 15941, 11268, 11261
49083, 15914, 15942, 11269, 15928, 15913, 15941, 11268, 15927
49084, 11270, 11268, 11261, 11263, 15929, 15927, 15888, 15890
49085, 11265, 11261, 11268, 11272, 15906, 15902, 15941, 15945
49086, 11268, 11269, 11273, 11272, 15941, 15942, 15946, 15945
49087, 11269, 11268, 11270, 11271, 15928, 15927, 15929, 15930
49088, 16104, 16233, 16247, 16118, 16132, 16261, 11276, 16146
49089, 16234, 16262, 11277, 16248, 16233, 16261, 11276, 16247
49090, 16118, 16146, 11276, 16247, 16120, 16148, 11278, 16249
49091, 16132, 16261, 11276, 16146, 16136, 16265, 11280, 16150
49092, 11276, 11280, 11282, 11278, 16146, 16150, 16152, 16148
49093, 11276, 11277, 11281, 11280, 16261, 16262, 16266, 16265
49094, 11277, 11276, 11278, 11279, 16248, 16247, 16249, 16250
** ... 60473 like lines cut
*ELSET, ELSET="Multispecies Section1-1"
1, 2, 3, 4, 5, 6, 7, 8, 9, 10, 11, 12, 13, 14, 15, 16
17, 18, 19, 20, 21, 22, 23, 24, 25, 26, 27, 28, 29, 30, 31, 32
33, 34, 35, 36, 37, 38, 39, 40, 41, 42, 43, 44, 45, 46, 47, 48
49, 50, 51, 52, 53, 54, 55, 56, 57, 58, 59, 60, 61, 62, 63, 64
65, 66, 67, 68, 69, 70, 71, 72, 73, 74, 75, 76, 77, 78, 79, 80
81, 82, 83, 84, 85, 86, 87, 88, 89, 90, 91, 92, 93, 94, 95, 96
97, 98, 99, 100, 101, 102, 103, 104, 105, 106, 107, 108, 109, 110, 111, 112
113, 114, 115, 116, 117, 118, 119, 120, 121, 122, 123, 124, 125, 126, 127, 128
129, 130, 131, 132, 133, 134, 135, 136, 137, 138, 139, 140, 141, 142, 143, 144
145, 146, 147, 148, 149, 150, 151, 152, 153, 154, 155, 156, 157, 158, 159, 160
161, 162, 163, 164, 165, 166, 167, 168, 169, 170, 171, 172, 173, 174, 175, 176
177, 178, 179, 180, 181, 182, 183, 184, 185, 186, 187, 188, 189, 190, 191, 192
193, 194, 195, 196, 197, 198, 199, 200, 201, 202, 203, 204, 205, 206, 207, 208
209, 210, 211, 212, 213, 214, 215, 216, 217, 218, 219, 220, 221, 222, 223, 224
225, 226, 227, 228, 229, 230, 231, 232, 233, 234, 235, 236, 237, 238, 239, 240
241, 242, 243, 244, 245, 246, 247, 248, 249, 250, 251, 252, 253, 254, 255, 256
257, 258, 259, 260, 261, 262, 263, 264, 265, 266, 267, 268, 269, 270, 271, 272
273, 274, 275, 276, 277, 278, 279, 280, 281, 282, 283, 284, 285, 286, 287, 288
289, 290, 291, 292, 293, 294, 295, 296, 297, 298, 299, 300, 301, 302, 303, 304
305, 306, 307, 308, 309, 310, 311, 312, 313, 314, 315, 316, 317, 318, 319, 320
** ... 6828 like lines cut
*ELSET, ELSET="Region.1 (301)-1"
1, 2, 3, 4, 5, 6, 7, 8, 9, 10, 11, 12, 13, 14, 15, 16
17, 18, 19, 20, 21, 22, 23, 24, 25, 26, 27, 28, 29, 30, 31, 32
33, 34, 35, 36, 37, 38, 39, 40, 41, 42, 43, 44, 45, 46, 47, 48
49, 50, 51, 52, 53, 54, 55, 56, 57, 58, 59, 60, 61, 62, 63, 64
65, 66, 67, 68, 69, 70, 71, 72, 73, 74, 75, 76, 77, 78, 79, 80
81, 82, 83, 84, 85, 86, 87, 88, 89, 90, 91, 92, 93, 94, 95, 96
97, 98, 99, 100, 101, 102, 103, 104, 105, 106, 107, 108, 109, 110, 111, 112
113, 114, 115, 116, 117, 118, 119, 120, 121, 122, 123, 124, 125, 126, 127, 128
129, 130, 131, 132, 133, 134, 135, 136, 137, 138, 139, 140, 141, 142, 143, 144
145, 146, 147, 148, 149, 150, 151, 152, 153, 154, 155, 156, 157, 158, 159, 160
161, 162, 163, 164, 165, 166, 167, 168, 169, 170, 171, 172, 173, 174, 175, 176
177, 178, 179, 180, 181, 182, 183, 184, 185, 186, 187, 188, 189, 190, 191, 192
193, 194, 195, 196, 197, 198, 199, 200, 201, 202, 203, 204, 205, 206, 207, 208
209, 210, 211, 212, 213, 214, 215, 216, 217, 218, 219, 220, 221, 222, 223, 224
225, 226, 227, 228, 229, 230, 231, 232, 233, 234, 235, 236, 237, 238, 239, 240
241, 242, 243, 244, 245, 246, 247, 248, 249, 250, 251, 252, 253, 254, 255, 256
257, 258, 259, 260, 261, 262, 263, 264, 265, 266, 267, 268, 269, 270, 271, 272
273, 274, 275, 276, 277, 278, 279, 280, 281, 282, 283, 284, 285, 286, 287, 288
289, 290, 291, 292, 293, 294, 295, 296, 297, 298, 299, 300, 301, 302, 303, 304
305, 306, 307, 308, 309, 310, 311, 312, 313, 314, 315, 316, 317, 318, 319, 320
** ... 6828 like lines cut
*SURFACE, NAME="Mesh_Opening.1 (318)-1", TYPE=ELEMENT
19642, S1
19643, S1
19644, S1
19645, S1
19646, S1
19647, S1
19648, S1
19649, S1
19650, S1
19651, S1
19652, S1
19653, S1
19654, S1
19655, S1
19656, S1
19657, S1
19658, S1
19659, S1
19660, S1
19691, S1
** ... 218 like lines cut
*SURFACE, NAME="Mesh_Opening.2 (319)-1", TYPE=ELEMENT
29170, S1
29311, S1
29313, S1
29324, S1
32015, S1
32034, S1
32037, S1
32348, S1
32359, S1
36120, S1
36321, S1
36339, S1
38796, S1
38979, S1
42190, S1
42191, S1
81491, S1
81492, S1
81493, S1
81494, S1
** ... 62 like lines cut
*SURFACE, NAME="Mesh_Opening.3 (320)-1", TYPE=ELEMENT
19699, S1
19735, S1
19743, S1
19923, S1
19927, S1
19930, S1
19931, S1
19932, S1
19933, S1
19934, S1
19935, S1
19936, S1
20371, S1
20374, S1
20381, S1
20382, S1
20385, S1
20387, S1
20389, S1
20392, S1
** ... 127 like lines cut
*SURFACE, NAME="Opening.1 (295)-1", TYPE=ELEMENT
19642, S1
19643, S1
19644, S1
19645, S1
19646, S1
19647, S1
19648, S1
19649, S1
19650, S1
19651, S1
19652, S1
19653, S1
19654, S1
19655, S1
19656, S1
19657, S1
19658, S1
19659, S1
19660, S1
19691, S1
** ... 218 like lines cut
*SURFACE, NAME="Opening.2 (297)-1", TYPE=ELEMENT
29170, S1
29311, S1
29313, S1
29324, S1
32015, S1
32034, S1
32037, S1
32348, S1
32359, S1
36120, S1
36321, S1
36339, S1
38796, S1
38979, S1
42190, S1
42191, S1
81491, S1
81492, S1
81493, S1
81494, S1
** ... 62 like lines cut
*SURFACE, NAME="Opening.3 (299)-1", TYPE=ELEMENT
19699, S1
19735, S1
19743, S1
19923, S1
19927, S1
19930, S1
19931, S1
19932, S1
19933, S1
19934, S1
19935, S1
19936, S1
20371, S1
20374, S1
20381, S1
20382, S1
20385, S1
20387, S1
20389, S1
20392, S1
** ... 127 like lines cut
*SURFACE, NAME="Part.1 (293)-1", TYPE=ELEMENT
19661, S1
19666, S1
19671, S1
19676, S1
19681, S1
19686, S1
19700, S1
19705, S1
19710, S1
19715, S1
19720, S1
19725, S1
19730, S1
19736, S1
19741, S1
19742, S1
19744, S1
19748, S1
19753, S1
19754, S1
** ... 13854 like lines cut
*PHYSICAL CONSTANTS, ABSOLUTE ZERO=0.
*MATERIAL, NAME="ImportedAsNew-SoluteA"
*DIFFUSIVITY, LAW=GENERAL, TYPE=ISOTROPIC
0.002
*MATERIAL, NAME="ImportedAsNew-SoluteB"
*DIFFUSIVITY, LAW=GENERAL, TYPE=ISOTROPIC
0.0007
*MATERIAL, NAME="ImportedAsNew-Water"
*DENSITY
9.98e-07
*VISCOSITY, DEFINITION=NEWTONIAN
1e-06
*SPECIFIC HEAT, TYPE=CONSTANT PRESSURE
4184000000.
*CONDUCTIVITY, TYPE=ISOTROPIC
598.
*DIFFUSIVITY, LAW=GENERAL, TYPE=ISOTROPIC
3000000.
*FLUID SECTION, ELSET="Multispecies Section1-1", TYPE=MULTIFLUID
"ImportedAsNew-Water"
"ImportedAsNew-SoluteA"
"ImportedAsNew-SoluteB"
