*HEADING
ADAPTIVE MESHING EXAMPLE
SPHERICAL INDENTATION (GRADED MESH)
Units - N, mm
*RESTART,W,N=1
*NODE
      1,         300.,         300.,         300.
      2,         300.,           0.,         300.
      3,         300.,           0.,         600.
      4,         300.,         300.,         600.
      5,           0.,         300.,         300.
      6,           0.,           0.,         300.
      7,           0.,           0.,         600.
      8,           0.,         300.,         600.
      9,         600.,           0.,         300.
     10,         600.,           0.,         600.
     11,         600.,         300.,         600.
     12,         600.,         300.,         300.
     13,         300.,           0.,           0.
     14,         300.,         300.,           0.
     15,           0.,           0.,           0.
     16,           0.,         300.,           0.
     17,         600.,           0.,           0.
     18,         600.,         300.,           0.
     19,         300.,      279.297,         300.
     20,         300.,      256.937,         300.
** ... 18471 like lines cut
*ELEMENT, TYPE=C3D8R,ELSET=BLANK
   1,    1,   19,  556,   74,  150, 1620, 5496,  898
   2,   19,   20,  557,  556, 1620, 1621, 5497, 5496
   3,   20,   21,  558,  557, 1621, 1622, 5498, 5497
   4,   21,   22,  559,  558, 1622, 1623, 5499, 5498
   5,   22,   23,  560,  559, 1623, 1624, 5500, 5499
   6,   23,   24,  561,  560, 1624, 1625, 5501, 5500
   7,   24,   25,  562,  561, 1625, 1626, 5502, 5501
   8,   25,   26,  563,  562, 1626, 1627, 5503, 5502
   9,   26,   27,  564,  563, 1627, 1628, 5504, 5503
  10,   27,    2,   28,  564, 1628,  206, 1259, 5504
  11,   74,  556,  565,   73,  898, 5496, 5505,  899
  12,  556,  557,  566,  565, 5496, 5497, 5506, 5505
  13,  557,  558,  567,  566, 5497, 5498, 5507, 5506
  14,  558,  559,  568,  567, 5498, 5499, 5508, 5507
  15,  559,  560,  569,  568, 5499, 5500, 5509, 5508
  16,  560,  561,  570,  569, 5500, 5501, 5510, 5509
  17,  561,  562,  571,  570, 5501, 5502, 5511, 5510
  18,  562,  563,  572,  571, 5502, 5503, 5512, 5511
  19,  563,  564,  573,  572, 5503, 5504, 5513, 5512
  20,  564,   28,   29,  573, 5504, 1259, 1260, 5513
** ... 3980 like lines cut
*ELEMENT, TYPE=C3D8R,ELSET=BLANK
4001,   300,  2855,  8745,  2133,     1,    19,   556,    74
4002,  2855,  2856,  8746,  8745,    19,    20,   557,   556
4003,  2856,  2857,  8747,  8746,    20,    21,   558,   557
4004,  2857,  2858,  8748,  8747,    21,    22,   559,   558
4005,  2858,  2859,  8749,  8748,    22,    23,   560,   559
4006,  2859,  2860,  8750,  8749,    23,    24,   561,   560
4007,  2860,  2861,  8751,  8750,    24,    25,   562,   561
4008,  2861,  2862,  8752,  8751,    25,    26,   563,   562
4009,  2862,  2863,  8753,  8752,    26,    27,   564,   563
4010,  2863,   320,  2494,  8753,    27,     2,    28,   564
4011,  2133,  8745,  8754,  2134,    74,   556,   565,    73
4012,  8745,  8746,  8755,  8754,   556,   557,   566,   565
4013,  8746,  8747,  8756,  8755,   557,   558,   567,   566
4014,  8747,  8748,  8757,  8756,   558,   559,   568,   567
4015,  8748,  8749,  8758,  8757,   559,   560,   569,   568
4016,  8749,  8750,  8759,  8758,   560,   561,   570,   569
4017,  8750,  8751,  8760,  8759,   561,   562,   571,   570
4018,  8751,  8752,  8761,  8760,   562,   563,   572,   571
4019,  8752,  8753,  8762,  8761,   563,   564,   573,   572
4020,  8753,  2494,  2495,  8762,   564,    28,    29,   573
** ... 3980 like lines cut
*ELEMENT, TYPE=C3D8R,ELSET=BLANK
 8001,   150,  1620, 11994,  3539,     1,    19,  3197,   385
 8002,  1620,  1621, 11995, 11994,    19,    20,  3198,  3197
 8003,  1621,  1622, 11996, 11995,    20,    21,  3199,  3198
 8004,  1622,  1623, 11997, 11996,    21,    22,  3200,  3199
 8005,  1623,  1624, 11998, 11997,    22,    23,  3201,  3200
 8006,  1624,  1625, 11999, 11998,    23,    24,  3202,  3201
 8007,  1625,  1626, 12000, 11999,    24,    25,  3203,  3202
 8008,  1626,  1627, 12001, 12000,    25,    26,  3204,  3203
 8009,  1627,  1628, 12002, 12001,    26,    27,  3205,  3204
 8010,  1628,   206,  3900, 12002,    27,     2,   339,  3205
 8011,  3539, 11994, 12003,  3540,   385,  3197,  3206,   384
 8012, 11994, 11995, 12004, 12003,  3197,  3198,  3207,  3206
 8013, 11995, 11996, 12005, 12004,  3198,  3199,  3208,  3207
 8014, 11996, 11997, 12006, 12005,  3199,  3200,  3209,  3208
 8015, 11997, 11998, 12007, 12006,  3200,  3201,  3210,  3209
 8016, 11998, 11999, 12008, 12007,  3201,  3202,  3211,  3210
 8017, 11999, 12000, 12009, 12008,  3202,  3203,  3212,  3211
 8018, 12000, 12001, 12010, 12009,  3203,  3204,  3213,  3212
 8019, 12001, 12002, 12011, 12010,  3204,  3205,  3214,  3213
 8020, 12002,  3900,  3901, 12011,  3205,   339,   340,  3214
** ... 3980 like lines cut
*ELEMENT, TYPE=C3D8R,ELSET=BLANK
12001,     1,    19,  3197,   385,   300,  2855, 15243,  4603
12002,    19,    20,  3198,  3197,  2855,  2856, 15244, 15243
12003,    20,    21,  3199,  3198,  2856,  2857, 15245, 15244
12004,    21,    22,  3200,  3199,  2857,  2858, 15246, 15245
12005,    22,    23,  3201,  3200,  2858,  2859, 15247, 15246
12006,    23,    24,  3202,  3201,  2859,  2860, 15248, 15247
12007,    24,    25,  3203,  3202,  2860,  2861, 15249, 15248
12008,    25,    26,  3204,  3203,  2861,  2862, 15250, 15249
12009,    26,    27,  3205,  3204,  2862,  2863, 15251, 15250
12010,    27,     2,   339,  3205,  2863,   320,  4964, 15251
12011,   385,  3197,  3206,   384,  4603, 15243, 15252,  4604
12012,  3197,  3198,  3207,  3206, 15243, 15244, 15253, 15252
12013,  3198,  3199,  3208,  3207, 15244, 15245, 15254, 15253
12014,  3199,  3200,  3209,  3208, 15245, 15246, 15255, 15254
12015,  3200,  3201,  3210,  3209, 15246, 15247, 15256, 15255
12016,  3201,  3202,  3211,  3210, 15247, 15248, 15257, 15256
12017,  3202,  3203,  3212,  3211, 15248, 15249, 15258, 15257
12018,  3203,  3204,  3213,  3212, 15249, 15250, 15259, 15258
12019,  3204,  3205,  3214,  3213, 15250, 15251, 15260, 15259
12020,  3205,   339,   340,  3214, 15251,  4964,  4965, 15260
** ... 3980 like lines cut
*NSET, NSET=NSET1
    1,    4,    5,    8,   11,   12,   14,   16,   18,   56,   57,   58,   59,   60,   61,   62
   63,   64,   65,   66,   67,   68,   69,   70,   71,   72,   73,   74,  112,  113,  114,  115
  116,  117,  118,  119,  120,  121,  122,  123,  124,  125,  126,  127,  128,  129,  130,  131
  132,  133,  134,  135,  136,  137,  138,  139,  140,  141,  142,  143,  144,  145,  146,  147
  148,  149,  150,  151,  152,  153,  154,  155,  156,  157,  158,  159,  160,  161,  162,  163
  164,  165,  166,  167,  168,  244,  245,  246,  247,  248,  249,  250,  251,  252,  253,  254
  255,  256,  257,  258,  259,  260,  261,  262,  263,  264,  265,  266,  267,  268,  269,  270
  271,  272,  273,  274,  275,  276,  277,  278,  279,  280,  281,  282,  283,  284,  285,  286
  287,  288,  289,  290,  291,  292,  293,  294,  295,  296,  297,  298,  299,  300,  367,  368
  369,  370,  371,  372,  373,  374,  375,  376,  377,  378,  379,  380,  381,  382,  383,  384
  385,  414,  415,  416,  417,  418,  419,  420,  421,  422,  423,  424,  425,  426,  427,  428
  429,  430,  431,  432,  433,  434,  435,  436,  437,  438,  439,  440,  441,  442,  443,  444
  445,  446,  447,  448,  449,  450,  451,  499,  500,  501,  502,  503,  504,  505,  506,  507
  508,  509,  510,  511,  512,  513,  514,  515,  516,  517,  518,  519,  520,  521,  522,  523
  524,  525,  526,  527,  528,  529,  530,  531,  532,  533,  534,  535,  536,  898,  899,  900
  901,  902,  903,  904,  905,  906,  907,  908,  909,  910,  911,  912,  913,  914,  915,  916
  917,  918,  919,  920,  921,  922,  923,  924,  925,  926,  927,  928,  929,  930,  931,  932
  933,  934,  935,  936,  937,  938,  939,  940,  941,  942,  943,  944,  945,  946,  947,  948
  949,  950,  951,  952,  953,  954,  955,  956,  957,  958,  959,  960,  961,  962,  963,  964
  965,  966,  967,  968,  969,  970,  971,  972,  973,  974,  975,  976,  977,  978,  979,  980
** ... 86 like lines cut
*NSET, NSET=NSET3
    2,    3,    6,    7,    9,   10,   13,   15,   17,   28,   29,   30,   31,   32,   33,   34
   35,   36,   37,   38,   39,   40,   41,   42,   43,   44,   45,   46,   84,   85,   86,   87
   88,   89,   90,   91,   92,   93,   94,   95,   96,   97,   98,   99,  100,  101,  102,  169
  170,  171,  172,  173,  174,  175,  176,  177,  178,  179,  180,  181,  182,  183,  184,  185
  186,  187,  188,  189,  190,  191,  192,  193,  194,  195,  196,  197,  198,  199,  200,  201
  202,  203,  204,  205,  206,  216,  217,  218,  219,  220,  221,  222,  223,  224,  225,  226
  227,  228,  229,  230,  231,  232,  233,  234,  301,  302,  303,  304,  305,  306,  307,  308
  309,  310,  311,  312,  313,  314,  315,  316,  317,  318,  319,  320,  321,  322,  323,  324
  325,  326,  327,  328,  329,  330,  331,  332,  333,  334,  335,  336,  337,  338,  339,  340
  341,  342,  343,  344,  345,  346,  347,  348,  349,  350,  351,  352,  353,  354,  355,  356
  357,  386,  387,  388,  389,  390,  391,  392,  393,  394,  395,  396,  397,  398,  399,  400
  401,  402,  403,  404,  452,  453,  454,  455,  456,  457,  458,  459,  460,  461,  462,  463
  464,  465,  466,  467,  468,  469,  470,  471,  472,  473,  474,  475,  476,  477,  478,  479
  480,  481,  482,  483,  484,  485,  486,  487,  488,  489,  537,  538,  539,  540,  541,  542
  543,  544,  545,  546,  547,  548,  549,  550,  551,  552,  553,  554,  555, 1259, 1260, 1261
 1262, 1263, 1264, 1265, 1266, 1267, 1268, 1269, 1270, 1271, 1272, 1273, 1274, 1275, 1276, 1277
 1278, 1279, 1280, 1281, 1282, 1283, 1284, 1285, 1286, 1287, 1288, 1289, 1290, 1291, 1292, 1293
 1294, 1295, 1296, 1297, 1298, 1299, 1300, 1301, 1302, 1303, 1304, 1305, 1306, 1307, 1308, 1309
 1310, 1311, 1312, 1313, 1314, 1315, 1316, 1317, 1318, 1319, 1320, 1321, 1322, 1323, 1324, 1325
 1326, 1327, 1328, 1329, 1330, 1331, 1332, 1333, 1334, 1335, 1336, 1337, 1338, 1339, 1340, 1341
** ... 86 like lines cut
*ELSET, ELSET=ASSEMBLY_G_GSET-2, GENERATE
    10,  16000,     10
*NODE,NSET=NOUT
100000,300.,410.,300.
*ELEMENT,TYPE=MASS,ELSET=PMASS
100000,100000
*MASS,ELSET=PMASS
0.2,
*SOLID SECTION,ELSET=BLANK,MATERIAL=FOAM, CONTROLS=SECT
*SECTION CONTROLS,HOURGLASS=ENHANCED, KINEMATICS=ORTHOGONAL,NAME=SECT
*MATERIAL,NAME=FOAM
*ELASTIC
 7.5E3, 0.0
*CRUSHABLE FOAM,HARDENING=ISOTROPIC
 1.0, 0.0
*CRUSHABLE FOAM HARDENING
 0.2000E3, 0.0000
 0.2577E3, 0.0094
 0.2760E3, 0.0258
 0.3053E3, 0.0452
 0.3267E3, 0.0655
 0.3623E3, 0.1084
 0.3891E3, 0.1540
 0.4250E3, 0.2405
 0.4568E3, 0.3812
 0.4738E3, 0.4600
 0.5170E3, 0.6391
 0.5862E3, 0.8570
 0.6503E3, 0.9857
 0.7470E3, 1.1324
 0.9820E3, 1.2965
 1.4702E3, 1.4808
 2.7262E3, 1.6609
 5.3911E3, 1.9000
*DENSITY
 60.E-9,
*BOUNDARY
NSET3,1,3,
100000,1,
100000,3,
100000,4,6,
*AMPLITUDE,NAME=RAMPP,TIME=TOTAL TIME, DEFINITION=SMOOTH STEP
0.0,0.0,0.06,-250.,
**
** STEP: STEP-1
**
*SURFACE,TYPE=ELEMENT, NAME=TARGET
_G7_S6, S6
*SURFACE,TYPE=REVOLUTION,NAME=PUNCH
300., 400., 300.,300.,600., 300.
START,100.,80.
LINE, 100.,0.
CIRCL,0.,-100.,0.,0.
*RIGID BODY,REF NODE=100000, ANALYTICAL SURFACE =PUNCH
*STEP
*DYNAMIC, EXPLICIT
, 0.06
*BOUNDARY,AMPLITUDE=RAMPP
100000,2,2,1.
*ELSET, ELSET=_G7_S6
12001,12011,12021,12031,12041,12051,12061,12071,12081,12091,12101,12111,12121,12131,12141,12151
12161,12171,12181,12191,12201,12211,12221,12231,12241,12251,12261,12271,12281,12291,12301,12311
12321,12331,12341,12351,12361,12371,12381,12391,12401,12411,12421,12431,12441,12451,12461,12471
12481,12491,12501,12511,12521,12531,12541,12551,12561,12571,12581,12591,12601,12611,12621,12631
12641,12651,12661,12671,12681,12691,12701,12711,12721,12731,12741,12751,12761,12771,12781,12791
12801,12811,12821,12831,12841,12851,12861,12871,12881,12891,12901,12911,12921,12931,12941,12951
12961,12971,12981,12991,13001,13011,13021,13031,13041,13051,13061,13071,13081,13091,13101,13111
13121,13131,13141,13151,13161,13171,13181,13191,13201,13211,13221,13231,13241,13251,13261,13271
13281,13291,13301,13311,13321,13331,13341,13351,13361,13371,13381,13391,13401,13411,13421,13431
13441,13451,13461,13471,13481,13491,13501,13511,13521,13531,13541,13551,13561,13571,13581,13591
13601,13611,13621,13631,13641,13651,13661,13671,13681,13691,13701,13711,13721,13731,13741,13751
13761,13771,13781,13791,13801,13811,13821,13831,13841,13851,13861,13871,13881,13891,13901,13911
13921,13931,13941,13951,13961,13971,13981,13991,14001,14011,14021,14031,14041,14051,14061,14071
14081,14091,14101,14111,14121,14131,14141,14151,14161,14171,14181,14191,14201,14211,14221,14231
14241,14251,14261,14271,14281,14291,14301,14311,14321,14331,14341,14351,14361,14371,14381,14391
14401,14411,14421,14431,14441,14451,14461,14471,14481,14491,14501,14511,14521,14531,14541,14551
14561,14571,14581,14591,14601,14611,14621,14631,14641,14651,14661,14671,14681,14691,14701,14711
14721,14731,14741,14751,14761,14771,14781,14791,14801,14811,14821,14831,14841,14851,14861,14871
14881,14891,14901,14911,14921,14931,14941,14951,14961,14971,14981,14991,15001,15011,15021,15031
15041,15051,15061,15071,15081,15091,15101,15111,15121,15131,15141,15151,15161,15171,15181,15191
** ... 80 like lines cut
*SURFACE INTERACTION,NAME=IMP_TARG
*CONTACT PAIR,INTERACTION=IMP_TARG
PUNCH,TARGET
*ADAPTIVE MESH, ELSET=BLANK,CONTROLS=GRADED,MESH SWEEPS=3
*ADAPTIVE MESH CONTROLS, NAME=GRADED, SMOOTHING=GRADED
*FILE OUTPUT,NUMBER INTERVAL=1, TIMEMARKS=YES
*EL FILE, ELSET=QA_TEST
 PEEQ,
*NODE FILE, NSET=QA_TEST
 U,
*ENERGY FILE
*****
*NSET, NSET=QA_TEST_REFN
NOUT,
*ELSET, ELSET=QA_TEST, GEN
1, 15001, 1000
*NSET, NSET=QA_TEST
NSET1,
*OUTPUT, FIELD, TIME MARKS=YES, NUMBER INTERVAL=1
*ELEMENT OUTPUT, ELSET=QA_TEST
PEEQ,
*NODE OUTPUT, NSET=QA_TEST
U,
*NODE OUTPUT, NSET=QA_TEST_REFN
RF,
*OUTPUT, HIST, FREQ=9999
*ENERGY OUTPUT, VAR=PRESELECT
*** output for figures
*OUTPUT, FIELD, TIME MARKS=YES, NUMBER INTERVAL=1
*ELEMENT OUTPUT
PEEQ,
*NODE OUTPUT
U,
*END STEP
