/batch
/config,noeldb,1     ! force off writing results to database
*get,_wallstrt,active,,time,wall
! ANSYS input file written by Workbench version 2021 R1
! File used for geometry attach: \\sfp.cih.dpih.edf.fr\ANSYS\USINE_BREVIERE\1111-Autres\01-test-panter\Conception1.scdoc
/title,wbnew--Structure statique (A5)
! ****** Begin Custom Load Command Snippet ******
/COM, ACT Extensions:
/COM,     LSDYNA, 2021.1
/COM,     5f463412-bd3e-484b-87e7-cbc0a665e474, wbex
/COM,
! ****** End   Custom Load Command Snippet ******
*DIM,_wb_ProjectScratch_dir,string,248
_wb_ProjectScratch_dir(1) = 'C:\Users\c78555\AppData\Local\Temp\WB_c78555_10676_2\wbnew_files\dp0\SYS\MECH\'
*DIM,_wb_SolverFiles_dir,string,248
_wb_SolverFiles_dir(1) = 'C:\Users\c78555\AppData\Local\Temp\WB_c78555_10676_2\wbnew_files\dp0\SYS\MECH\'
*DIM,_wb_userfiles_dir,string,248
_wb_userfiles_dir(1) = 'C:\Users\c78555\AppData\Local\Temp\WB_c78555_10676_2\wbnew_files\user_files\'
/com,--- Data in consistent MKS units. See Solving Units in the help system for more information.
/units,MKS
/nopr
/wb,file,start              !  signify a WB generated input file
/prep7
! Turn off shape checking because checks already performed inside WB mesher.
! See help system for more information.
SHPP,OFF,,NOWARN
/nolist
etcon,set             ! allow ANSYS to choose best KEYOP's for 180x elements, resets any applicable keyopt to MAPDL defaults
/com,*********** Nodes for the whole assembly ***********
nblock,3,,7414
(1i9,3e20.9e3)
        1    -6.705882353E-03     9.973333333E-03    -2.777777778E-03
        2    -6.705882353E-03     9.973333333E-03    -1.555555556E-03
        3    -6.705882353E-03     9.973333333E-03    -3.333333333E-04
        4    -6.705882353E-03     9.973333333E-03     8.888888889E-04
        5    -6.705882353E-03     9.973333333E-03     2.111111111E-03
        6    -6.705882353E-03     9.973333333E-03     3.333333333E-03
        7    -6.705882353E-03     9.973333333E-03     4.555555556E-03
        8    -6.705882353E-03     9.973333333E-03     5.777777778E-03
        9    -5.411764706E-03     9.973333333E-03    -2.777777778E-03
       10    -5.411764706E-03     9.973333333E-03    -1.555555556E-03
       11    -5.411764706E-03     9.973333333E-03    -3.333333333E-04
       12    -5.411764706E-03     9.973333333E-03     8.888888889E-04
       13    -5.411764706E-03     9.973333333E-03     2.111111111E-03
       14    -5.411764706E-03     9.973333333E-03     3.333333333E-03
       15    -5.411764706E-03     9.973333333E-03     4.555555556E-03
       16    -5.411764706E-03     9.973333333E-03     5.777777778E-03
       17    -4.117647059E-03     9.973333333E-03    -2.777777778E-03
       18    -4.117647059E-03     9.973333333E-03    -1.555555556E-03
       19    -4.117647059E-03     9.973333333E-03    -3.333333333E-04
       20    -4.117647059E-03     9.973333333E-03     8.888888889E-04
! ... 6721 like lines cut
/wb,elem,start            !  set before creation of elements
/com,*********** Elements for Body 1 "Conception1\Corps" ***********
et,1,186
keyo,1,2,1          ! set full integration on SOLID186
eblock,19,solid,,1377
(19i9)
        1        1        1        1        0        0        0        0       20        0        1        1     1423     1505     1633     1152     1494     1504     1641
     1805     6039     6201     1806     5471     6180     6199     5472     1804     6038     6198     6456
        1        1        1        1        0        0        0        0       20        0        2        1     1633     1505     1423        2     1634     1506     1424
     1806     6201     6039     1805     1811     6203     6042     1810     1801     6455     6200     6036
        1        1        1        1        0        0        0        0       20        0        3        2     1634     1506     1424        3     1635     1507     1425
     1811     6203     6042     1810     1816     6205     6045     1815     1807     6457     6202     6040
        1        1        1        1        0        0        0        0       20        0        4        3     1635     1507     1425        4     1636     1508     1426
     1816     6205     6045     1815     1821     6207     6048     1820     1812     6458     6204     6043
        1        1        1        1        0        0        0        0       20        0        5        4     1636     1508     1426        5     1637     1509     1427
     1821     6207     6048     1820     1826     6209     6051     1825     1817     6459     6206     6046
        1        1        1        1        0        0        0        0       20        0        6        5     1637     1509     1427        6     1638     1510     1428
     1826     6209     6051     1825     1831     6211     6054     1830     1822     6460     6208     6049
        1        1        1        1        0        0        0        0       20        0        7        6     1638     1510     1428        7     1639     1511     1429
     1831     6211     6054     1830     1836     6213     6057     1835     1827     6461     6210     6052
        1        1        1        1        0        0        0        0       20        0        8        7     1639     1511     1429        8     1640     1512     1430
     1836     6213     6057     1835     1841     6214     6059     1840     1832     6462     6212     6055
        1        1        1        1        0        0        0        0       20        0        9        8     1640     1512     1430     1153     1297     1313     1314
     1841     6214     6059     1840     5475     5787     5819     5476     1839     5788     5820     5822
        1        1        1        1        0        0        0        0       20        0       10        1      129     1431     1423     1152     1136     1493     1494
     1803     2341     6037     1805     5438     5439     6179     5471     1804     2340     6062     6038
! ... 2735 like lines cut
!Material Id = {A057AE55-68FB-493A-A633-F3E1B992ECFA}
/wb,elem,end               !  done creating elements
/com,*********** Send User Defined Coordinate System(s) ***********
csys,0
toffst,273.15,  ! Temperature offset from absolute zero
/com,*********** Set Reference Temperature ***********
tref,22.
/wb,mat,start              !  starting to send materials
/com,*********** Send Materials ***********
Temperature = 'TEMP' ! Temperature
MP,DENS,1,7850,	! kg m^-3
MP,ALPX,1,1.2e-05,	! C^-1
MP,C,1,434,	! J kg^-1 C^-1
MP,KXX,1,60.5,	! W m^-1 C^-1
MP,RSVX,1,1.7e-07,	! kg m^3 A^-2 s^-3
MP,EX,1,200000000000,	! Pa
MP,NUXY,1,0.3,
MP,MURX,1,10000,

/wb,mat,end                !  done sending materials
!************************* Model Summary ********************
!Conception1\Corps,	Acier standard,	matid,	1
!************************* End Model Summary ********************
! get the diagonal of the bounding box. Needed later for other things
*get,_xmin,node,,mnloc,x
*get,_ymin,node,,mnloc,y
*get,_zmin,node,,mnloc,z
*get,_xmax,node,,mxloc,x
*get,_ymax,node,,mxloc,y
*get,_zmax,node,,mxloc,z
_ASMDIAG=(_xmax-_xmin)*(_xmax-_xmin)+(_ymax-_ymin)*(_ymax-_ymin)+(_zmax-_zmin)*(_zmax-_zmin)
_ASMDIAG=SQRT(_ASMDIAG)
/wb,contact,start          !  starting to send contact
/wb,contact,end            !  done creating contacts
/com,*********** Send Named Selection as Element Component ***********
esel,s,type,,1
cm,VOLUME,elem
esel,all
/com,*********** Send Named Selection as Node Component ***********
CMBLOCK,SURFACE ,NODE,      512
(8i10)
      1153      1154      1155      1156      1157      1158      1159      1160
      1161      1162      1163      1164      1165      1166      1167      1168
      1169      1170      1171      1172      1173      1174      1175      1176
      1177      1178      1179      1180      1181      1182      1183      1184
      1185      1186      1187      1188      1189      1190      1191      1192
      1193      1194      1195      1196      1197      1198      1199      1200
      1201      1202      1203      1204      1205      1206      1207      1208
      1209      1210      1211      1212      1213      1214      1215      1216
      1217      1218      1219      1220      1221      1222      1223      1224
      1225      1226      1227      1228      1229      1230      1231      1232
      1233      1234      1235      1236      1237      1238      1239      1240
      1241      1242      1243      1244      1245      1246      1247      1248
      1249      1250      1251      1252      1253      1254      1255      1256
      1257      1258      1259      1260      1261      1262      1263      1264
      1265      1266      1267      1268      1269      1270      1271      1272
      1273      1274      1275      1276      1277      1278      1279      1280
      1281      1282      1283      1284      1285      1286      1287      1288
      1289      1290      1291      1292      1293      1294      1295      1296
      1297      1298      1299      1300      1301      1302      1303      1304
      1305      1306      1307      1308      1309      1310      1311      1312
! ... 44 like lines cut

/golist
/wb,load,start             !  starting to send loads
/gst,on,on
fini
*get,_numnode,node,0,count
*get,_numelem,elem,0,count
*get, _MAXELEMNUM, elem, 0, NUM, MAX
*get, _MAXNODENUM, node, 0, NUM, MAX
*get, _MAXELEMTYPE, etyp, 0, NUM, MAX
*get, _MAXREALCONST, real, 0, NUM, MAX
/go
/wb,load,end               !  done creating loads
/com,--- Number of total nodes = %_numnode%
/com,--- Number of contact elements = 0
/com,--- Number of spring elements = 0
/com,--- Number of bearing elements = 0
/com,--- Number of solid elements = 1377
/com,--- Number of condensed parts = 0
/com,--- Number of total elements = %_numelem%
*get,_wallbsol,active,,time,wall
/com,****************************************************************************
/com,*************************    SOLUTION       ********************************
/com,****************************************************************************
/solu
antype,0                   ! static analysis
_thickRatio=  1     ! Ratio of thick parts in the model
eqsl,pcg,1e-8,,,,,,1
cntr,print,1               ! print out contact info and also make no initial contact an error
dmpoption,emat,no             ! Don't combine emat file for DANSYS
dmpoption,esav,no             ! Don't combine esav file for DANSYS
nldiag,cont,iter           ! print out contact info each equilibrium iteration
rescontrol,,none                 ! Do not keep any restart files
/com,****************************************************
/com,******************* SOLVE FOR LS 1 OF 1 ****************
/nopr
/gopr
/nolist
nsub,1,1,1
time,1.
outres,erase
outres,all,none
outres,nsol,all,
outres,rsol,all
outres,eangl,all
outres,etmp,all
outres,veng,all
outres,strs,all,
outres,epel,all,
outres,eppl,all,
outres,cont,all,
! *********** WB SOLVE COMMAND ***********
! check interactive state
*get,ANSINTER_,active,,int
*if,ANSINTER_,ne,0,then
/eof
*endif
solve
/com *************** Write FE CONNECTORS ********* 
CEWRITE,file,ce,,INTE
/com,****************************************************
/com,*************** FINISHED SOLVE FOR LS 1 *************
*get,_wallasol,active,,time,wall
/nopr
*get,_numnode,node,0,count
*get,_numelem,elem,0,count
*get, _MAXELEMNUM, elem, 0, NUM, MAX
*get, _MAXNODENUM, node, 0, NUM, MAX,,,INTERNAL
*get, _MAXELEMTYPE, etyp, 0, NUM, MAX
*get, _MAXREALCONST, real, 0, NUM, MAX
/gopr
*get,_PCGITER,active,,solu,cgiter
/post1
xmlo,ENCODING,ISO-8859-1
xmlo,parm
/xml,parm,xml
fini
/gopr
*get,_walldone,active,,time,wall
_preptime=(_wallbsol-_wallstrt)*3600
_solvtime=(_wallasol-_wallbsol)*3600
_posttime=(_walldone-_wallasol)*3600
_totaltim=(_walldone-_wallstrt)*3600
*get,_dlbratio,active,0,solu,dlbr
*get,_combtime,active,0,solu,comb
/com,--- Total number of nodes = %_numnode%
/com,--- Total number of elements = %_numelem%
/com,--- Element load balance ratio = %_dlbratio%
/com,--- Time to combine distributed files = %_combtime%
/wb,file,end               ! done with WB generated input
