*HEADING
BOLTED PIPE JOINT: 22.5 DEG. SEGMENT 3-D MODEL 
*RESTART,WRITE,FREQUENCY=1
*PREPRINT,ECHO=NO
**
*NODE
       1,      50.799,         26.,    -13.2558
       2,      50.482,         26.,     -14.416
       3,     50.1385,         26.,    -15.5684
       4,     49.7688,         26.,    -16.7128
       5,     49.3729,         26.,    -17.8484
       6,     48.9512,         26.,    -18.9745
       7,     48.9547,     2.47292,    -13.9799
       8,      50.799,     25.0171,    -13.2558
       9,     50.1385,     25.0171,    -15.5684
      10,     49.3729,     25.0171,    -17.8484
      11,     48.8293,          0.,     -13.944
      12,     50.7989,     24.0341,    -13.2558
      13,     50.4819,     24.0341,     -14.416
      14,     50.1385,     24.0341,    -15.5684
      15,     49.7688,     24.0341,    -16.7128
      16,     49.3729,     24.0341,    -17.8484
      17,     48.9512,     24.0341,    -18.9745
      18,     48.2609,     2.47292,    -16.2072
      19,     50.7989,     22.9137,    -13.2558
      20,     50.1385,     22.9137,    -15.5684
** ... 9484 like lines cut
   25863,       72.51,         26.,      -1.E-6
   25864,        56.5,        36.6
   25865,        56.5,     34.8333
   25866,        56.5,     33.0667
   25867,        56.5,        31.3
   25868,        56.5,     29.5333
   25869,        56.5,     27.7667
   25870,       56.48,         26.,      -1.E-6
   25871,         71.,        36.6
   25872,        69.5,        36.6
   25873,         68.,        36.6
   25874,        66.5,        36.6
   25875,        69.5,     34.8333
   25876,        66.5,     34.8333
   25877,         71.,     33.0667
   25878,        69.5,     33.0667
   25879,         68.,     33.0667
   25880,        66.5,     33.0667
   25881,        69.5,        31.3
   25882,        66.5,        31.3
   25883,         71.,     29.5333
   25884,        69.5,     29.5333
   25885,         68.,     29.5333
   25886,        66.5,     29.5333
   25887,        69.5,     27.7667
   25888,        66.5,     27.7667
   25889,         71.,         26.
   25890,        69.5,         26.
** ... 293 like lines cut
   26184,       76.48,         26.,      -1.E-6
   26185,         76.,         26.
   26186,        75.5,         26.
   26187,         75.,         26.
   26188,        74.5,         26.
   26189,         74.,         26.
   26190,        73.5,         26.
   26191,         73.,         26.
   26192,        52.5,        36.6
   26193,         53.,        36.6
   26194,        53.5,        36.6
   26195,         54.,        36.6
   26196,        54.5,        36.6
   26197,         55.,        36.6
   26198,        55.5,        36.6
   26199,         56.,        36.6
   26200,        52.5,     34.8333
   26201,        53.5,     34.8333
   26202,        54.5,     34.8333
   26203,        55.5,     34.8333
   26204,        52.5,     33.0667
** ... 23 like lines cut
   26228,       52.52,         26.,      -1.E-6
   26229,         53.,         26.
   26230,        53.5,         26.
   26231,         54.,         26.
   26232,        54.5,         26.
   26233,         55.,         26.
   26234,        55.5,         26.
   26235,         56.,         26.
   27000,     48.5037,         26.,    -20.0909
   27001,     48.5037,     25.0171,    -20.0909
   27002,     48.5037,     24.0341,    -20.0909
   27003,     48.5037,     22.9137,    -20.0909
   27004,     48.5037,     21.7933,    -20.0909
   27005,     48.5037,     20.5162,    -20.0909
   27006,     48.5037,     19.2391,    -20.0909
   27007,     48.5037,     17.7834,    -20.0909
   27008,     48.5037,     16.3277,    -20.0909
   27009,     48.5037,     14.6684,    -20.0909
   27010,     48.5037,     13.0091,    -20.0909
   27011,     48.5037,     11.1178,    -20.0909
   27012,     48.5037,     9.22642,    -20.0909
** ... 697 like lines cut
**
   30001,           0.,          0.,          0.
**
**FRONT FACE
*NSET,NSET=FRONT,GENERATE
25000,26235
**
**BACK FACE
*NSET,NSET=BACK,GENERATE
27000,27709
**
**GASKET BOTTOM
*NSET,NSET=GASKET_B,GENERATE
24000,24138
25816,25856,10
25818,25848,10
25821,25851,10
25823,25853,10
27693,27709
**
**GASKET FRONT
*NSET,NSET=GASKET_F,GENERATE
25814,25856
**
**
**GASKET FRONT EXCEPT FOR NODES THAT ARE USED BY INTERFACE ELEMENTS
*NSET,NSET=GASKT_F2,GENERATE
25815,25855,5
25816,25856,5
25818,25853,5
**
**BOLT BOTTOM
*NSET,NSET=BOLT_B,GENERATE
24139,24221
26129,26135
26138,26141
26144,26147
**
**BOLT FRONT
*NSET,NSET=BOLT_F,GENERATE
25857,26235
**
**BOLT FRONT EXCEPT FOR NODES THAT ARE USED BY INTERFACE ELEMENTS
*NSET,NSET=BOLT_F2,GENERATE
25857,25862
25864,25869
25871,26183
26192,26227
**
**
*ELEMENT, TYPE=C3D20R, ELSET=PID1
    2217,   25814,   17400,   24001,   25816,   25819,   17426,   24010,
   25821,   17399,   17406,   24000,   25815,   17425,   17432,   24009,
   25820,   25817,   17417,   24006,   25818
    2218,   17400,   17402,   24003,   24001,   17426,   17428,   24012,
   24010,   17401,   17407,   24002,   17406,   17427,   17433,   24011,
   17432,   17417,   17418,   24007,   24006
    2219,   17402,   17404,   24005,   24003,   17428,   17430,   24014,
   24012,   17403,   17408,   24004,   17407,   17429,   17434,   24013,
   17433,   17418,   17419,   24008,   24007
    2220,   25819,   17426,   24010,   25821,   25824,   17452,   24019,
   25826,   17425,   17432,   24009,   25820,   17451,   17458,   24018,
   25825,   25822,   17443,   24015,   25823
    2221,   17426,   17428,   24012,   24010,   17452,   17454,   24021,
   24019,   17427,   17433,   24011,   17432,   17453,   17459,   24020,
   17458,   17443,   17444,   24016,   24015
    2222,   17428,   17430,   24014,   24012,   17454,   17456,   24023,
   24021,   17429,   17434,   24013,   17433,   17455,   17460,   24022,
   17459,   17444,   17445,   24017,   24016
    2223,   25824,   17452,   24019,   25826,   25829,   17478,   24028,
   25831,   17451,   17458,   24018,   25825,   17477,   17484,   24027,
** ... 124 like lines cut
*ELEMENT, TYPE=C3D20R, ELSET=PID2
   10030,   17976,   17978,   17984,   17982,   18006,   18008,   18014,
   18012,   17977,   17981,   17983,   17980,   18007,   18011,   18013,
   18010,   17998,   17999,   18001,   18000
   10031,   17978,   17915,   17913,   17984,   18008,   17924,   17922,
   18014,   17979,   17914,   17985,   17981,   18009,   17923,   18015,
   18011,   17999,   17918,   17917,   18001
   10032,   17982,   17984,   17990,   17988,   18012,   18014,   18020,
   18018,   17983,   17987,   17989,   17986,   18013,   18017,   18019,
   18016,   18000,   18001,   18003,   18002
   10033,   17984,   17913,   17911,   17990,   18014,   17922,   17920,
   18020,   17985,   17912,   17991,   17987,   18015,   17921,   18021,
   18017,   18001,   17917,   17916,   18003
   10034,   17988,   17990,   17996,   17994,   18018,   18020,   18026,
   18024,   17989,   17993,   17995,   17992,   18019,   18023,   18025,
   18022,   18002,   18003,   18005,   18004
   10035,   17990,   17911,   17876,   17996,   18020,   17920,   17887,
   18026,   17991,   17910,   17997,   17993,   18021,   17919,   18027,
   18023,   18003,   17916,   17880,   18005
   10036,   18006,   18008,   18014,   18012,   18036,   18038,   18044,
   18042,   18007,   18011,   18013,   18010,   18037,   18041,   18043,
** ... 1276 like lines cut
*ELEMENT, TYPE=C3D15, ELSET=PID4
    1705,   10669,   25008,     666,   10702,   25022,     737,   10955,
     665,   11225,   10988,     736,   11237,   10679,   25013,     688
    1706,   10702,   25022,     737,   10735,   25036,     808,   10988,
     736,   11237,   11021,     807,   11249,   10712,   25027,     759
    1707,   10735,   25036,     808,   10768,   25050,     879,   11021,
     807,   11249,   11054,     878,   11261,   10745,   25041,     830
    1708,   10768,   25050,     879,   10801,   25064,     950,   11054,
     878,   11261,   11087,     949,   11273,   10778,   25055,     901
    1709,   10801,   25064,     950,   10834,   25078,    1021,   11087,
     949,   11273,   11120,    1020,   11285,   10811,   25069,     972
    1710,   10834,   25078,    1021,   10867,   25092,    1092,   11120,
    1020,   11285,   11153,    1091,   11297,   10844,   25083,    1043
    1711,   10867,   25092,    1092,   10900,   25106,    1163,   11153,
    1091,   11297,   11186,    1162,   11309,   10877,   25097,    1114
    1712,   10900,   25106,    1163,   10933,   25140,    2590,   11186,
    1162,   11309,   11219,    2589,   11321,   10910,   25123,    2045
    1713,   11226,     666,     668,   11238,     737,     739,   11227,
     667,   11329,   11239,     738,   11341,   11231,     688,     689
    1714,   11238,     737,     739,   11250,     808,     810,   11239,
     738,   11341,   11251,     809,   11353,   11243,     759,     760
** ... 44 like lines cut
*ELEMENT, TYPE=C3D20R, ELSET=PID5
       1,       1,       3,      14,      12,     132,     134,     145,
     143,       2,       9,      13,       8,     133,     140,     144,
     139,      96,      97,     101,     100
       2,       3,       5,      16,      14,     134,     136,     147,
     145,       4,      10,      15,       9,     135,     141,     146,
     140,      97,      98,     102,     101
       3,       5,   27000,   27002,      16,     136,   27023,   27025,
     147,       6,   27001,      17,      10,     137,   27024,     148,
     141,      98,   27015,   27016,     102
       4,      12,      14,      25,      23,     143,     145,     156,
     154,      13,      20,      24,      19,     144,     151,     155,
     150,     100,     101,     105,     104
       5,      14,      16,      27,      25,     145,     147,     158,
     156,      15,      21,      26,      20,     146,     152,     157,
     151,     101,     102,     106,     105
       6,      16,   27002,   27004,      27,     147,   27025,   27027,
     158,      17,   27003,      28,      21,     148,   27026,     159,
     152,     102,   27016,   27017,     106
       7,      23,      25,      36,      34,     154,     156,     167,
     165,      24,      31,      35,      30,     155,     162,     166,
** ... 4444 like lines cut
**
** bolt_properties
**
*SOLID SECTION, ELSET=PID2, MATERIAL=MID1
          1.,
**
** flange_wedge_properties
**
*SOLID SECTION, ELSET=PID4, MATERIAL=MID1
          1.,
**
** flange_properties
**
*SOLID SECTION, ELSET=PID5, MATERIAL=MID1
          1.,
**
** gasket_properties
**
*SOLID SECTION, ELSET=PID1, MATERIAL=MID2
          1.,
**
**  Contact Between Gasket and Hub
**
*ELSET,ELSET=PID7,GENERATE
2217,2240
*ELSET,ELSET=PID8,GENERATE
2241,2264
*ELSET,ELSET=PID9,GENERATE
241,264
*ELSET,ELSET=PID10,GENERATE
265,288
*surface,NAME=GASKET
PID7,S3
PID8,S2
*surface,NAME=HUB_BOT
PID9,S5
PID10,S2
*CONTACT PAIR, INTERACTION=ROUGH, SMALL SLIDING, ADJUST=.1
HUB_BOT,GASKET
*SURFACE INTERACTION,NAME=ROUGH
*FRICTION,ROUGH
*SURFACE BEHAVIOR, NO SEPARATION
**
**  Contact Between Bolt and Hub
** 
*ELSET,ELSET=PID11,GENERATE
12096,12107
12060,12071
12024,12035
*ELSET,ELSET=PID12,GENERATE
1153,1156
1185,1188
1217,1220
1249,1260
1345,1348
1377,1380
1409,1412
*surface,NAME=BOLT
PID11,S2
*surface,NAME=HUB_BOLT
PID12,S1
*CONTACT PAIR, INTERACTION=BLT_HUB, SMALL SLIDING, HCRIT=1.1
BOLT,HUB_BOLT
*SURFACE INTERACTION,NAME=BLT_HUB
*FRICTION,ROUGH
*SURFACE BEHAVIOR, NO SEPARATION
**
** MPC_ID=1
**
*MPC
CBIQU,   1929,   1119,   1130,  25100,  25098,   1125,   1129,  25099,   1118
**
** MPC_ID=2
**
*MPC
CBIQU,   1931,   1121,   1132,   1130,   1119,   1126,   1131,   1125,   1120
**
** MPC_ID=3
**
*MPC
CBIQU,   1951,   1130,   1141,  25102,  25100,   1136,   1140,  25101,   1129
**
** MPC_ID=4
**
*MPC
CBIQU,   1973,   1141,   1152,  25104,  25102,   1147,   1151,  25103,   1140
**
** MPC_ID=5
**
*MPC
CBIQU,   1995,   1152,   1163,  25106,  25104,   1158,   1162,  25105,   1151
**
** MPC_ID=6
**
*MPC
CBIQU,   1953,   1132,   1143,   1141,   1130,   1137,   1142,   1136,   1131
**
** MPC_ID=7
**
*MPC
CBIQU,   1975,   1143,   1154,   1152,   1141,   1148,   1153,   1147,   1142
**
** MPC_ID=8
**
*MPC
CBIQU,   1997,   1154,   1165,   1163,   1152,   1159,   1164,   1158,   1153
**
** MPC_ID=9
**
*MPC
CBIQU,   1933,    602,    471,   1132,   1121,    517,   1133,   1126,   1122
**
** MPC_ID=10
**
*MPC
CBIQU,   1955,    471,    340,   1143,   1132,    386,   1144,   1137,   1133
**
** MPC_ID=11
**
*MPC
CBIQU,   1977,    340,    209,   1154,   1143,    255,   1155,   1148,   1144
**
** MPC_ID=12
**
*MPC
CBIQU,   1999,    209,     78,   1165,   1154,    124,   1166,   1159,   1155
**
** MPC_ID=13
**
*MPC
CBIQU,   1874,    604,    473,    471,    602,    518,    472,    517,    603
**
** MPC_ID=14
**
*MPC
CBIQU,   1822,    473,    342,    340,    471,    387,    341,    386,    472
**
** MPC_ID=15
**
*MPC
CBIQU,   1770,    342,    211,    209,    340,    256,    210,    255,    341
**
** MPC_ID=16
**
*MPC
CBIQU,   1718,    211,     80,     78,    209,    125,     79,    124,    210
**
** MPC_ID=17
**
*MPC
CBIQU,   1876,    606,    475,    473,    604,    519,    474,    518,    605
**
** MPC_ID=18
**
*MPC
CBIQU,   1824,    475,    344,    342,    473,    388,    343,    387,    474
**
** MPC_ID=19
**
*MPC
CBIQU,   1772,    344,    213,    211,    342,    257,    212,    256,    343
**
** MPC_ID=20
**
*MPC
CBIQU,   1720,    213,     82,     80,    211,    126,     81,    125,    212
**
** MPC_ID=21
**
*MPC
CBIQU,   1878,  27106,  27083,    475,    606,  27091,    476,    519,    607
**
** MPC_ID=22
**
*MPC
CBIQU,   1826,  27083,  27060,    344,    475,  27068,    345,    388,    476
**
** MPC_ID=23
**
*MPC
CBIQU,   1774,  27060,  27037,    213,    344,  27045,    214,    257,    345
**
** MPC_ID=24
**
*MPC
CBIQU,   1722,  27037,  27014,     82,    213,  27022,     83,    126,    214
**
** MPC_ID=25
**
*MPC
CBIQU,   3749,   3739,   3761,  25145,  25141,   3750,   3760,  25143,   3738
**
** MPC_ID=26
**
*MPC
CBIQU,   3771,   3761,   3783,  25149,  25145,   3772,   3782,  25147,   3760
**
** MPC_ID=27
**
*MPC
CBIQU,   3793,   3783,   3805,  25153,  25149,   3794,   3804,  25151,   3782
**
** MPC_ID=28
**
*MPC
CBIQU,   3815,   3805,   3827,  25157,  25153,   3816,   3826,  25155,   3804
**
** MPC_ID=29
**
*MPC
CBIQU,   3751,   3741,   3763,   3761,   3739,   3752,   3762,   3750,   3740
**
** MPC_ID=30
**
*MPC
CBIQU,   3773,   3763,   3785,   3783,   3761,   3774,   3784,   3772,   3762
**
** MPC_ID=31
**
*MPC
CBIQU,   3795,   3785,   3807,   3805,   3783,   3796,   3806,   3794,   3784
**
** MPC_ID=32
**
*MPC
CBIQU,   3817,   3807,   3829,   3827,   3805,   3818,   3828,   3816,   3806
**
** MPC_ID=33
**
*MPC
CBIQU,   3753,   3642,   3380,   3763,   3741,   3511,   3764,   3752,   3742
**
** MPC_ID=34
**
*MPC
CBIQU,   3775,   3380,   3118,   3785,   3763,   3249,   3786,   3774,   3764
**
** MPC_ID=35
**
*MPC
CBIQU,   3797,   3118,   2856,   3807,   3785,   2987,   3808,   3796,   3786
**
** MPC_ID=36
**
*MPC
CBIQU,   3819,   2856,   2594,   3829,   3807,   2725,   3830,   3818,   3808
**
** MPC_ID=37
**
*MPC
CBIQU,   2726,   2858,   2596,   2594,   2856,   2727,   2595,   2725,   2857
**
** MPC_ID=38
**
*MPC
CBIQU,   2728,   2860,   2598,   2596,   2858,   2729,   2597,   2727,   2859
**
** MPC_ID=39
**
*MPC
CBIQU,   2990,   3122,   2860,   2858,   3120,   2991,   2859,   2989,   3121
**
** MPC_ID=40
**
*MPC
CBIQU,   2730,  27193,  27141,   2598,   2860,  27167,   2599,   2729,   2861
**
** MPC_ID=41
**
*MPC
CBIQU,   2992,  27245,  27193,   2860,   3122,  27219,   2861,   2991,   3123
**
** MPC_ID=42
**
*MPC
CBIQU,   3254,  27297,  27245,   3122,   3384,  27271,   3123,   3253,   3385
**
** MPC_ID=44
**
*MPC
CBIQU,   3250,   3382,   3120,   3118,   3380,   3251,   3119,   3249,   3381
**
** MPC_ID=45
**
*MPC
CBIQU,   3512,   3644,   3382,   3380,   3642,   3513,   3381,   3511,   3643
**
** MPC_ID=46
**
*MPC
CBIQU,   3514,   3646,   3384,   3382,   3644,   3515,   3383,   3513,   3645
**
** MPC_ID=47
**
*MPC
CBIQU,   3516,  27349,  27297,   3384,   3646,  27323,   3385,   3515,   3647
**
** MPC_ID=48
**
*MPC
CBIQU,   2988,   3120,   2858,   2856,   3118,   2989,   2857,   2987,   3119
**
** MPC_ID=49
**
*MPC
CBIQU,   3252,   3384,   3122,   3120,   3382,   3253,   3121,   3251,   3383
**
** bolt_ and flange_material
**
*MATERIAL, NAME=MID1
**
*ELASTIC,TYPE=ISOTROPIC
     206000.,         0.3
**
** gasket_material
**
*MATERIAL, NAME=MID2
**
*ELASTIC,TYPE=ISOTROPIC
      68700.,         0.3
**
** Nodes along the front face not including MPC nodes.
*NSET,NSET=FRONT2,GENERATE
25000,25097
25107,25140
25142,25156,2
25158,26235
**
** Nodes along the front face not including MPC nodes and not 
** including nodes used by interface elements.
**
*NSET,NSET=FRONT3,GENERATE
25000,25097
25107,25140
25142,25156,2
25158,25813
25815,25855,5
25816,25856,5
25818,25853,5
25857,25862
25864,25869
25871,26183
26192,26227
**
** Nodes along the back face not including MPC nodes.
*NSET,NSET=BACK2,GENERATE
27000,27013
27015,27021
27023,27036
27038,27044
27046,27059
27061,27067
27069,27082
27084,27090
27092,27105
27107,27140
27142,27166
27168,27192
27194,27218
27219,27244
27246,27270
27272,27296
27298,27322
27324,27348
27350,27709
**
*NSET,NSET=BACK3,GENERATE
** Nodes along the back face not including MPC nodes and not
** including nodes used by interface elements.
27000,27013
27015,27021
27023,27036
27038,27044
27046,27059
27061,27067
27069,27082
27084,27090
27092,27105
27107,27140
27142,27166
27168,27192
27194,27218
27219,27244
27246,27270
27272,27296
27298,27322
27324,27348
27350,27675
27693,27709
**
** MPC nodes along the front face
*NSET,NSET=MPCFRONT,GENERATE
25141,25157,2
25098,25106
**
** MPC nodes along the back face
*NSET,NSET=MPCBACK,GENERATE
27141,27349,26
27014,27106,23
27022,27091,23
**
*TRANSFORM,NSET=BACK
1.,0.,-0.4142135624,0.,1.,0.
**
*NSET,NSET=NOUT
25896,26228,25923,26184,26132
25464,25519,25008,25545,25765,25813,25140,25132,25124,25814,25834,25854
** interface nodes on z=0 plane
*NSET,NSET=INTFRONT
   17608,   25854,   25849,   17582,   17607,   25852,   17581,
   17599,    2502,   25124,   25126,    2513,    2501,   25125,    2512,
    2508,
   25008,   25664,   10664,   10669,   25665,   10950,   10666,
   10955,   26228,   26230,   20245,   20243,   26229,   20253,   20244,
   20252,
   25664,   25662,   10659,   10664,   25663,   10945,   10661,
   10950,   26230,   26232,   20247,   20245,   26231,   20254,   20246,
   20253,
   25662,   25660,   10654,   10659,   25661,   10940,   10656,
   10945,   26232,   26234,   20249,   20247,   26233,   20255,   20248,
   20254,
   25660,   25658,   10649,   10654,   25659,   10935,   10651,
   10940,   26234,   25870,   17973,   20249,   26235,   17974,   20250,
   20255,
    8902,    8897,   25543,   25545,    8899,    8896,   25544,
    8901,   19803,   19805,   26186,   26184,   19804,   19799,   26185,
   19798,
    8897,    8892,   25541,   25543,    8894,    8891,   25542,
    8896,   19805,   19807,   26188,   26186,   19806,   19800,   26187,
** ... 7 like lines cut
*ELSET, ELSET=PSET
   10135,   10136,   10137,   10138,   10139,   10140,   10183,   10184,
   10185,   10186,   10187,   10188,   10231,   10232,   10233,   10234,
   10235,   10236,   10291,   10292,   10293,   10294,   10295,   10296,
   10297,   10298,    10299
*surface,NAME=PSECT
PSET,S2
*PRE-TENSION SECTION,SURFACE=PSECT,NODE=30001
**
** step  1,Default
**
*STEP
APPLY PRE-TENSION LOAD
**
*STATIC
1.0,1.0
*CLOAD
30001,1,7500.
**
** front_face
**
*BOUNDARY, OP=NEW
FRONT3,3
BACK3,3
**
** bottom_ysymm
**
*BOUNDARY, OP=NEW
GASKET_B,2
BOLT_B,2
**
*NODE PRINT,FREQUENCY=1,NSET=BOLT_B,TOTALS=YES
U,RF
*NODE PRINT,FREQUENCY=1,NSET=GASKET_B,TOTALS=YES
U,RF
*NODE PRINT,FREQUENCY=1,NSET=NOUT
U,RF
*NODE PRINT,FREQUENCY=1,NSET=INTFRONT
U,RF
*NODE PRINT,FREQUENCY=1,NSET=MPCFRONT
U,RF
*NODE PRINT,FREQUENCY=1,NSET=MPCBACK
U,RF
*NODE FILE,FREQUENCY=1,NSET=NOUT
U,RF
**
*CONTACT PRINT,SLAVE=HUB_BOT, MASTER=GASKET
*CONTACT FILE,SLAVE=HUB_BOT, MASTER=GASKET
*CONTACT PRINT,MASTER=HUB_BOLT
**
*PRINT, CONTACT=YES
**
*END STEP
