*heading
Cross-section of a disc
*restart,write,freq=999
*node, nset=nall
     1, 133.0000000, 6.5000001
     2, 133.0000000, 4.2405617
     3, 133.0000000, 2.4881361
     4, 133.0000000, 1.1232125
     5, 133.0000000, 0.0000000
     6, 129.6249900, 6.5000001
     7, 129.6249900, 4.2405617
     8, 129.6249900, 2.4881361
     9, 129.6249900, 1.1232125
    10, 129.6249900, 0.0000000
    11, 126.2500000, 6.5000001
    12, 126.2500000, 4.2405617
    13, 126.2500000, 2.4881361
    14, 126.2500000, 1.1232125
    15, 126.2500000, 0.0000000
    16, 122.8750100, 6.5000001
    17, 122.8750100, 4.2405617
    18, 122.8750100, 2.4881361
    19, 122.8750100, 1.1232125
    20, 122.8750100, 0.0000000
** ... 268 like lines cut
*NSET,NSET=MOYEU_PTS
265,282
*NSET,NSET=JANTE_PTS
256,259,262,265,268,271,272
*NSET,NSET=MIDPOINT
1,6,11,16,21,26,31,36,41,46,
51,56,61
*ELEMENT,TYPE=DCCAX4,ELSET=DISC
1,10,5,4,9
2,9,4,3,8
3,8,3,2,7
4,7,2,1,6
5,6,1,114,110
6,110,114,115,111
7,111,115,116,112
8,112,116,117,113
9,15,10,9,14
10,14,9,8,13
11,13,8,7,12
12,12,7,6,11
13,11,6,110,106
14,106,110,111,107
15,107,111,112,108
16,108,112,113,109
17,20,15,14,19
18,19,14,13,18
19,18,13,12,17
20,17,12,11,16
** ... 216 like lines cut
*ELSET,ELSET=EL_PISTE_SUP
8,16,24,32,40,48,56,64,72,
80,88,96,100,97,98,99
*ELSET,ELSET=PISTES_R
8,16,24,32,40,48,56,64,72,
80,88,96,100,97,98,99
*ELSET,ELSET=EL_PISTE_INF
1,9,17,25,33,41,49,57,65,73,
81,89
*ELSET,ELSET=BOL3,GENERATE
113,209,4
*ELSET,ELSET=BOL5,GENERATE
168,216,4
*ELSET,ELSET=BOL6,GENERATE
97,109,4
*ELSET,ELSET=COURONNE,GENERATE
1,8
*ELSET,ELSET=JANTE,GENERATE
213,233,4
*ELSET,ELSET=MOY,GENERATE
216,236,4
*ELSET,ELSET=PISTEI_R
1,9,17,25,33,41,49,57,65,73,
81,89,132,136,140,144,148,152,156,160,
164,168
*SOLID SECTION,ELSET=DISC,MATERIAL=fonte
**
*MATERIAL,NAME=fonte
*conductivity
55.,20.
51.,100.
50. ,200.
46.,300.
42.,400.
39.,500.
34.,600.
30.,700.
*specific heat
501.E6, 20.
561.E6, 100.
590.E6, 200.
619.E6, 300.
669.E6, 400.
719.E6, 500.
784.E6, 600.
855.E6, 700.
**
*EXPANSION
11.7E-6, 20.
11.7E-6,100.
11.8E-6,200.
12.2E-6,300.
12.9E-6,400.
13.2E-6,500.
13.6E-6,600.
13.8E-6,700.
**
*DENSITY
7.15E-9,  20.
7.10E-9, 100.
7.05E-9, 200.
7.00E-9, 300.
6.95E-9, 400.
6.90E-9, 500.
6.85E-9, 600.
6.80E-9, 700.
*INITIAL CONDITIONS, TYPE=TEMPERATURE
nall, 40.
*INITIAL CONDITIONS, TYPE=MASS FLOW RATE
nall,0,0,0
*STEP,inc=1000
*HEAT TRANSFER
1.0E-9,1.0E-9
*OUTPUT,FIELD,Frequency=1
*NODE OUTPUT,NSET=nall
nt
*END STEP
