*HEADING
NOTCHED BEAM UNDER CYCLIC LOADING
*NODE
    1707,          0.,          9.
    1708,   0.0864093,     9.00332
    1709,    0.172819,     9.00665
    1710,    0.297442,     9.01144
    1711,    0.422066,     9.01623
    1712,    0.601805,     9.02315
    1713,    0.781544,     9.03006
    1714,     1.04077,     9.04003
    1715,         1.3,        9.05
    1765,       1.475,      9.1875
    1766,        1.65,       9.325
    1767,       1.825,      9.4625
    1768,          2.,         9.6
    1836,     2.06555,     9.83422
    1837,     2.13109,     10.0684
    1838,     2.24462,     10.4741
    1839,     2.35815,     10.8798
    1840,     2.55479,     11.5824
    1841,     2.75142,     12.2851
    1851,          0.,     8.60639
** ... 536 like lines cut
**
**
*ELEMENT, TYPE=CPE8R, ELSET=ELALL
      55,    1707,    1856,    1858,    1709,    1851,    1857,
    1852,    1708
      56,    1709,    1858,    1860,    1711,    1852,    1859,
    1853,    1710
      57,    1711,    1860,    1862,    1713,    1853,    1861,
    1854,    1712
      58,    1713,    1862,    1864,    1715,    1854,    1863,
    1855,    1714
      59,    1856,    1870,    1872,    1858,    1865,    1871,
    1866,    1857
      60,    1858,    1872,    1874,    1860,    1866,    1873,
    1867,    1859
      61,    1860,    1874,    1876,    1862,    1867,    1875,
    1868,    1861
      62,    1862,    1876,    1878,    1864,    1868,    1877,
    1869,    1863
      63,    1870,    1884,    1886,    1872,    1879,    1885,
    1880,    1871
      64,    1872,    1886,    1888,    1874,    1880,    1887,
    1881,    1873
** ... 310 like lines cut
**
** refine
**
*ELSET, ELSET=REFINE
     166,     167,     168,     169,     170,     171,     172,     173,
     174,     175,     176,     177,     178,     179,     180,     181,
     182,     183,     184,     185,     186,     187,     188,     189,
     190,     191,     192,     193,     194,     195,     196,     197,
     198,     199,     200,     201,     202,     203,     204,     205,
     206,     207,     208,     209,     210,     211,     212,     213,
     214,     215,     216,     217,     218,     219
*NSET,NSET=PIVOT
2260,
*NSET,NSET=XSYM
1707,
1851,
1856,
1865,
1870,
1879,
1884,
1902,
1907,
1916,
1921,
1930,
1935,
2345,
2354,
2359,
2368,
2373,
2382,
2387,
** ... 5 like lines cut
*SOLID SECTION,ELSET=ELALL,MATERIAL=MAT
*MATERIAL,NAME=MAT
*ELASTIC
2.1E5,.3
*PLASTIC,HARDENING=COMBINED,DATA TYPE=PARAMETERS
200.,25500.,81.
*CYCLIC HARDENING,PARAMETERS
200.,2000.,.26
*INITIAL CONDITIONS,TYPE=HARDENING
ELALL,.43,128.,-181.,53.
*BOUNDARY
PIVOT,2
XSYM,1
*AMPLITUDE,NAME=AMP
0.,1.,1.,0.,2.,1.,3.,0.,
4.,1.,5.,0.,6.,1.
*RESTART,WRITE,FREQ=1
*STEP
first loading
*STATIC
.125,1.,,.125
*CLOAD, OP=NEW
2210,2,675.
*NODE FILE,FREQ=8
U,
*EL FILE,ELSET=REFINE,FREQ=8
S,E,PE,ALPHA
*OUTPUT,FIELD,FREQ=8
*NODE OUTPUT
U,
*OUTPUT,HISTORY,FREQ=1
*ELEMENT OUTPUT,ELSET=REFINE
S,E,PE,ALPHA
*NODE PRINT,FREQ=0
*EL PRINT,FREQ=0
*END STEP
*STEP
additional unloadings and loadings
*STATIC
.125,6.,,.125
*CLOAD,OP=NEW,AMPLITUDE=AMP
2210,2,675.
*END STEP
